<?xml version="1.0" encoding="UTF-8"?>

<!-- generated on 2025-04-01 13:55:03 by Eclipse SUMO netedit Version 1.21.0
<neteditConfiguration xmlns:xsi="http://www.w3.org/2001/XMLSchema-instance" xsi:noNamespaceSchemaLocation="http://sumo.dlr.de/xsd/neteditConfiguration.xsd">

    <input>
        <sumocfg-file value="C:\Users\Nguyen Minh Quan\Quan\Quan\SUMO_sim\DirectoryName\142025\sim_SUMO\quan\complex_juntion.sumocfg"/>
        <additional-files value=""/>
        <route-files value="C:\Users\Nguyen Minh Quan\Quan\Quan\SUMO_sim\DirectoryName\142025\sim_SUMO\quan\complex_juntion.rou.xml"/>
        <sumo-net-file value="C:\Users\Nguyen Minh Quan\Quan\Quan\SUMO_sim\DirectoryName\142025\sim_SUMO\quan\complex_juntion.net.xml"/>
    </input>

    <output>
        <output-file value="C:\Users\Nguyen Minh Quan\Quan\Quan\SUMO_sim\DirectoryName\142025\sim_SUMO\quan\complex_juntion.net.xml"/>
    </output>

    <processing>
        <geometry.min-radius.fix.railways value="false"/>
        <geometry.max-grade.fix value="false"/>
        <offset.disable-normalization value="true"/>
        <lefthand value="0"/>
    </processing>

    <junctions>
        <no-turnarounds value="true"/>
        <junctions.corner-detail value="5"/>
        <junctions.limit-turn-speed value="5.50"/>
        <rectangular-lane-cut value="0"/>
    </junctions>

    <pedestrian>
        <walkingareas value="0"/>
    </pedestrian>

    <netedit>
        <ignore.routeelements value="false"/>
    </netedit>

</neteditConfiguration>
-->

<net version="1.20" junctionCornerDetail="5" limitTurnSpeed="5.50" xmlns:xsi="http://www.w3.org/2001/XMLSchema-instance" xsi:noNamespaceSchemaLocation="http://sumo.dlr.de/xsd/net_file.xsd">

    <location netOffset="0.00,0.00" convBoundary="1028.42,-670.30,1862.57,-125.62" origBoundary="-10000000000.00,-10000000000.00,10000000000.00,10000000000.00" projParameter="!"/>

    <edge id=":J23_0" function="internal">
        <lane id=":J23_0_0" index="0" disallow="truck trailer tram rail_urban rail rail_electric rail_fast ship container cable_car subway aircraft drone custom1 custom2" speed="8.08" length="14.54" shape="1531.04,-415.50 1528.59,-414.75 1526.84,-412.51 1525.80,-408.77 1525.46,-403.53"/>
        <lane id=":J23_0_1" index="1" disallow="truck trailer tram rail_urban rail rail_electric rail_fast ship container cable_car subway aircraft drone custom1 custom2" speed="8.66" length="16.83" shape="1531.04,-415.50 1527.19,-414.75 1524.44,-412.51 1522.80,-408.77 1522.26,-403.52"/>
        <lane id=":J23_0_2" index="2" disallow="truck trailer tram rail_urban rail rail_electric rail_fast ship container cable_car subway aircraft drone custom1 custom2" speed="9.24" length="19.33" shape="1531.04,-415.50 1525.79,-414.75 1522.04,-412.51 1519.80,-408.76 1519.06,-403.51"/>
    </edge>
    <edge id=":J23_3" function="internal">
        <lane id=":J23_3_0" index="0" speed="13.89" length="18.15" shape="1531.04,-415.50 1525.66,-414.51 1522.24,-412.31 1518.83,-410.11 1513.45,-409.11"/>
        <lane id=":J23_3_1" index="1" speed="13.89" length="18.15" shape="1531.04,-415.50 1525.78,-415.00 1522.24,-413.91 1518.71,-412.81 1513.45,-412.31"/>
        <lane id=":J23_3_2" index="2" speed="13.89" length="18.15" shape="1531.04,-418.70 1525.78,-418.20 1522.24,-417.11 1518.71,-416.01 1513.45,-415.51"/>
        <lane id=":J23_3_3" index="3" speed="13.89" length="18.15" shape="1531.04,-418.70 1513.45,-418.71"/>
    </edge>
    <edge id=":J23_7" function="internal">
        <lane id=":J23_7_0" index="0" disallow="truck trailer tram rail_urban rail rail_electric rail_fast container cable_car subway aircraft drone custom1 custom2" speed="8.10" length="14.58" shape="1525.44,-437.10 1525.79,-431.85 1526.83,-428.10 1528.59,-425.85 1531.05,-425.10"/>
    </edge>
    <edge id=":J23_8" function="internal">
        <lane id=":J23_8_0" index="0" disallow="truck trailer tram rail_urban rail rail_electric rail_fast ship container cable_car subway aircraft drone custom1 custom2" speed="13.89" length="33.64" shape="1525.44,-437.10 1525.46,-403.53"/>
        <lane id=":J23_8_1" index="1" disallow="truck trailer tram rail_urban rail rail_electric rail_fast ship container cable_car subway aircraft drone custom1 custom2" speed="13.89" length="33.64" shape="1522.24,-437.10 1522.26,-403.52"/>
        <lane id=":J23_8_2" index="2" disallow="truck trailer tram rail_urban rail rail_electric rail_fast ship container cable_car subway aircraft drone custom1 custom2" speed="13.89" length="33.64" shape="1522.24,-437.10 1521.73,-427.64 1520.63,-420.31 1519.54,-412.98 1519.06,-403.51"/>
    </edge>
    <edge id=":J23_11" function="internal">
        <lane id=":J23_11_0" index="0" disallow="truck trailer tram rail_urban rail rail_electric rail_fast container cable_car subway aircraft drone custom1 custom2" speed="11.35" length="29.60" shape="1519.04,-437.11 1518.68,-424.86 1517.63,-416.11 1515.88,-410.86 1513.45,-409.11"/>
        <lane id=":J23_11_1" index="1" disallow="truck trailer tram rail_urban rail rail_electric rail_fast container cable_car subway aircraft drone custom1 custom2" speed="10.77" length="26.53" shape="1519.04,-437.11 1518.68,-426.26 1517.63,-418.51 1515.88,-413.86 1513.45,-412.31"/>
        <lane id=":J23_11_2" index="2" disallow="truck trailer tram rail_urban rail rail_electric rail_fast container cable_car subway aircraft drone custom1 custom2" speed="10.16" length="23.48" shape="1519.04,-437.11 1518.68,-427.66 1517.63,-420.91 1515.88,-416.86 1513.45,-415.51"/>
        <lane id=":J23_11_3" index="3" disallow="truck trailer tram rail_urban rail rail_electric rail_fast container cable_car subway aircraft drone custom1 custom2" speed="9.51" length="20.47" shape="1519.04,-437.11 1518.68,-429.06 1517.63,-423.31 1515.88,-419.86 1513.45,-418.71"/>
    </edge>
    <edge id=":J23_15" function="internal">
        <lane id=":J23_15_0" index="0" speed="13.89" length="19.09" shape="1513.44,-431.51 1518.82,-430.51 1522.24,-428.31 1525.66,-426.11 1531.05,-425.10"/>
    </edge>
    <edge id=":J23_16" function="internal">
        <lane id=":J23_16_0" index="0" disallow="truck trailer tram rail_urban rail rail_electric rail_fast ship container cable_car subway aircraft drone custom1 custom2" speed="11.50" length="30.37" shape="1513.44,-428.31 1518.68,-426.76 1522.43,-422.12 1524.69,-414.37 1525.46,-403.53"/>
    </edge>
    <edge id=":J23_17" function="internal">
        <lane id=":J23_17_0" index="0" speed="13.89" length="17.99" shape="1513.44,-425.11 1518.71,-424.61 1522.24,-423.51 1525.78,-422.40 1531.04,-421.90"/>
    </edge>
    <edge id=":J23_18" function="internal">
        <lane id=":J23_18_0" index="0" disallow="truck trailer tram rail_urban rail rail_electric rail_fast ship container cable_car subway aircraft drone custom1 custom2" speed="10.54" length="25.37" shape="1513.44,-425.11 1517.28,-423.76 1520.03,-419.71 1521.69,-412.97 1522.26,-403.52"/>
        <lane id=":J23_18_1" index="1" disallow="truck trailer tram rail_urban rail rail_electric rail_fast ship container cable_car subway aircraft drone custom1 custom2" speed="9.51" length="20.47" shape="1513.44,-421.91 1515.88,-420.76 1517.63,-417.31 1518.70,-411.56 1519.06,-403.51"/>
    </edge>
    <edge id=":J30_0" function="internal">
        <lane id=":J30_0_0" index="0" disallow="bus truck" speed="13.89" length="14.41" shape="1513.02,-409.11 1498.62,-409.09"/>
        <lane id=":J30_0_1" index="1" disallow="bus truck" speed="13.89" length="14.41" shape="1513.02,-412.31 1498.61,-412.29"/>
    </edge>
    <edge id=":J30_2" function="internal">
        <lane id=":J30_2_0" index="0" disallow="motorcycle moped bicycle aircraft scooter drone custom1 custom2" speed="8.10" length="14.57" shape="1513.02,-415.51 1510.57,-414.76 1508.82,-412.50 1507.77,-408.75 1507.43,-403.50"/>
        <lane id=":J30_2_1" index="1" disallow="motorcycle moped bicycle aircraft scooter drone custom1 custom2" speed="8.67" length="16.85" shape="1513.02,-415.51 1509.17,-414.75 1506.42,-412.50 1504.77,-408.75 1504.23,-403.50"/>
    </edge>
    <edge id=":J30_4" function="internal">
        <lane id=":J30_4_0" index="0" disallow="moped bicycle scooter" speed="13.89" length="14.42" shape="1513.02,-415.51 1498.60,-415.49"/>
        <lane id=":J30_4_1" index="1" disallow="moped bicycle scooter" speed="13.89" length="14.42" shape="1513.02,-418.71 1498.60,-418.69"/>
    </edge>
    <edge id=":J30_6" function="internal">
        <lane id=":J30_6_0" index="0" disallow="pedestrian motorcycle moped bicycle container aircraft wheelchair scooter drone custom1 custom2" speed="6.51" length="9.03" shape="1507.40,-437.10 1507.75,-434.65 1508.80,-432.90 1510.56,-431.86 1513.01,-431.51"/>
        <lane id=":J30_6_1" index="1" disallow="pedestrian motorcycle moped bicycle container aircraft wheelchair scooter drone custom1 custom2" speed="7.33" length="11.73" shape="1507.40,-437.10 1507.75,-433.25 1508.81,-430.50 1510.56,-428.86 1513.01,-428.31"/>
        <lane id=":J30_6_2" index="2" disallow="pedestrian motorcycle moped bicycle container aircraft wheelchair scooter drone custom1 custom2" speed="8.10" length="14.57" shape="1507.40,-437.10 1507.75,-431.85 1508.81,-428.10 1510.56,-425.86 1513.01,-425.11"/>
        <lane id=":J30_6_3" index="3" disallow="pedestrian motorcycle moped bicycle container aircraft wheelchair scooter drone custom1 custom2" speed="8.83" length="17.50" shape="1507.40,-437.10 1507.76,-430.45 1508.81,-425.70 1510.56,-422.86 1513.01,-421.91"/>
    </edge>
    <edge id=":J30_10" function="internal">
        <lane id=":J30_10_0" index="0" disallow="pedestrian motorcycle moped bicycle container aircraft wheelchair scooter drone custom1 custom2" speed="13.89" length="33.60" shape="1507.40,-437.10 1507.43,-403.50"/>
        <lane id=":J30_10_1" index="1" disallow="pedestrian motorcycle moped bicycle container aircraft wheelchair scooter drone custom1 custom2" speed="13.89" length="33.60" shape="1504.20,-437.10 1504.23,-403.50"/>
    </edge>
    <edge id=":J30_12" function="internal">
        <lane id=":J30_12_0" index="0" disallow="pedestrian bus truck motorcycle moped bicycle container aircraft wheelchair scooter drone custom1 custom2" speed="11.36" length="29.62" shape="1504.20,-437.10 1503.86,-424.85 1502.81,-416.10 1501.07,-410.85 1498.62,-409.09"/>
        <lane id=":J30_12_1" index="1" disallow="pedestrian bus truck motorcycle moped bicycle container aircraft wheelchair scooter drone custom1 custom2" speed="10.78" length="26.55" shape="1504.20,-437.10 1503.86,-426.25 1502.81,-418.50 1501.06,-413.85 1498.61,-412.29"/>
        <lane id=":J30_12_2" index="2" disallow="pedestrian motorcycle moped bicycle container aircraft wheelchair scooter drone custom1 custom2" speed="10.16" length="23.51" shape="1504.20,-437.10 1503.86,-427.65 1502.81,-420.90 1501.06,-416.85 1498.60,-415.49"/>
        <lane id=":J30_12_3" index="3" disallow="pedestrian motorcycle moped bicycle container aircraft wheelchair scooter drone custom1 custom2" speed="9.52" length="20.49" shape="1504.20,-437.10 1503.85,-429.05 1502.81,-423.30 1501.05,-419.85 1498.60,-418.69"/>
    </edge>
    <edge id=":J30_16" function="internal">
        <lane id=":J30_16_0" index="0" disallow="bus truck" speed="13.89" length="14.44" shape="1498.57,-431.49 1513.01,-431.51"/>
        <lane id=":J30_16_1" index="1" disallow="bus truck" speed="13.89" length="14.44" shape="1498.57,-428.29 1513.01,-428.31"/>
    </edge>
    <edge id=":J30_18" function="internal">
        <lane id=":J30_18_0" index="0" disallow="bus truck motorcycle moped bicycle aircraft scooter drone custom1 custom2" speed="11.11" length="28.36" shape="1498.57,-428.29 1502.44,-426.75 1505.20,-422.10 1506.86,-414.36 1507.43,-403.50"/>
    </edge>
    <edge id=":J30_19" function="internal">
        <lane id=":J30_19_0" index="0" disallow="moped bicycle scooter" speed="13.89" length="14.43" shape="1498.58,-425.09 1513.01,-425.11"/>
    </edge>
    <edge id=":J30_20" function="internal">
        <lane id=":J30_20_0" index="0" disallow="motorcycle moped bicycle aircraft scooter drone custom1 custom2" speed="9.51" length="20.49" shape="1498.59,-421.89 1501.05,-420.75 1502.81,-417.30 1503.87,-411.55 1504.23,-403.50"/>
    </edge>
    <edge id=":J33_0" function="internal">
        <lane id=":J33_0_0" index="0" disallow="pedestrian motorcycle moped bicycle aircraft wheelchair scooter drone custom1 custom2" speed="6.49" length="9.03" shape="1390.62,-403.19 1390.26,-405.64 1389.21,-407.38 1387.45,-408.42 1385.00,-408.74"/>
        <lane id=":J33_0_1" index="1" disallow="pedestrian motorcycle moped bicycle aircraft wheelchair scooter drone custom1 custom2" speed="7.31" length="11.74" shape="1390.62,-403.19 1390.26,-407.04 1389.20,-409.78 1387.44,-411.42 1384.97,-411.94"/>
        <lane id=":J33_0_2" index="2" disallow="pedestrian motorcycle moped bicycle aircraft wheelchair scooter drone custom1 custom2" speed="8.08" length="14.60" shape="1390.62,-403.19 1390.26,-408.44 1389.19,-412.18 1387.42,-414.42 1384.93,-415.14"/>
        <lane id=":J33_0_3" index="3" disallow="pedestrian motorcycle moped bicycle aircraft wheelchair scooter drone custom1 custom2" speed="8.81" length="17.54" shape="1390.62,-403.19 1390.26,-409.84 1389.18,-414.58 1387.40,-417.42 1384.90,-418.34"/>
    </edge>
    <edge id=":J33_4" function="internal">
        <lane id=":J33_4_0" index="0" disallow="pedestrian motorcycle moped bicycle aircraft wheelchair scooter drone custom1 custom2" speed="13.89" length="33.67" shape="1390.62,-403.19 1390.63,-436.86"/>
        <lane id=":J33_4_1" index="1" disallow="pedestrian motorcycle moped bicycle aircraft wheelchair scooter drone custom1 custom2" speed="13.89" length="33.67" shape="1393.82,-403.19 1393.83,-436.85"/>
    </edge>
    <edge id=":J33_6" function="internal">
        <lane id=":J33_6_0" index="0" disallow="pedestrian bus truck motorcycle moped bicycle aircraft wheelchair scooter drone custom1 custom2" speed="11.37" length="29.69" shape="1393.82,-403.19 1394.16,-415.46 1395.22,-424.23 1396.97,-429.50 1399.43,-431.26"/>
        <lane id=":J33_6_1" index="1" disallow="pedestrian bus truck motorcycle moped bicycle aircraft wheelchair scooter drone custom1 custom2" speed="10.79" length="26.63" shape="1393.82,-403.19 1394.16,-414.06 1395.22,-421.83 1396.98,-426.50 1399.44,-428.06"/>
        <lane id=":J33_6_2" index="2" disallow="pedestrian motorcycle moped bicycle aircraft wheelchair scooter drone custom1 custom2" speed="10.18" length="23.58" shape="1393.82,-403.19 1394.16,-412.66 1395.22,-419.43 1396.98,-423.50 1399.45,-424.86"/>
        <lane id=":J33_6_3" index="3" disallow="pedestrian motorcycle moped bicycle aircraft wheelchair scooter drone custom1 custom2" speed="9.54" length="20.57" shape="1393.82,-403.19 1394.17,-411.26 1395.22,-417.03 1396.98,-420.50 1399.45,-421.66"/>
    </edge>
    <edge id=":J33_10" function="internal">
        <lane id=":J33_10_0" index="0" disallow="bus truck" speed="13.89" length="14.50" shape="1399.48,-408.86 1385.00,-408.74"/>
        <lane id=":J33_10_1" index="1" disallow="bus truck" speed="13.89" length="14.50" shape="1399.48,-412.06 1384.97,-411.94"/>
    </edge>
    <edge id=":J33_12" function="internal">
        <lane id=":J33_12_0" index="0" disallow="pedestrian bus truck motorcycle moped bicycle aircraft wheelchair scooter drone custom1 custom2" speed="11.10" length="28.38" shape="1399.48,-412.06 1395.59,-413.60 1392.83,-418.25 1391.17,-426.00 1390.63,-436.86"/>
    </edge>
    <edge id=":J33_13" function="internal">
        <lane id=":J33_13_0" index="0" disallow="moped bicycle scooter" speed="13.89" length="14.55" shape="1399.47,-415.26 1384.93,-415.14"/>
        <lane id=":J33_13_1" index="1" disallow="moped bicycle scooter" speed="13.89" length="14.55" shape="1399.46,-418.46 1384.90,-418.34"/>
    </edge>
    <edge id=":J33_15" function="internal">
        <lane id=":J33_15_0" index="0" disallow="pedestrian motorcycle moped bicycle aircraft wheelchair scooter drone custom1 custom2" speed="9.50" length="20.50" shape="1399.46,-418.46 1396.99,-419.60 1395.23,-423.05 1394.18,-428.80 1393.83,-436.85"/>
    </edge>
    <edge id=":J33_16" function="internal">
        <lane id=":J33_16_0" index="0" disallow="pedestrian motorcycle moped bicycle aircraft wheelchair scooter drone custom1 custom2" speed="6.62" length="9.31" shape="1384.77,-431.14 1387.33,-431.52 1389.16,-432.60 1390.26,-434.38 1390.63,-436.86"/>
    </edge>
    <edge id=":J33_17" function="internal">
        <lane id=":J33_17_0" index="0" disallow="bus truck" speed="13.89" length="14.66" shape="1384.77,-431.14 1399.43,-431.26"/>
    </edge>
    <edge id=":J33_18" function="internal">
        <lane id=":J33_18_0" index="0" disallow="pedestrian motorcycle moped bicycle aircraft wheelchair scooter drone custom1 custom2" speed="8.10" length="14.43" shape="1384.80,-427.94 1388.75,-428.53 1391.57,-430.22 1393.26,-432.99 1393.83,-436.85"/>
    </edge>
    <edge id=":J33_19" function="internal">
        <lane id=":J33_19_0" index="0" disallow="bus truck" speed="13.89" length="14.61" shape="1384.80,-427.94 1399.44,-428.06"/>
        <lane id=":J33_19_1" index="1" disallow="moped bicycle scooter" speed="13.89" length="14.61" shape="1384.84,-424.74 1399.45,-424.86"/>
        <lane id=":J33_19_2" index="2" disallow="moped bicycle scooter" speed="13.89" length="14.61" shape="1384.87,-421.54 1399.45,-421.66"/>
    </edge>
    <edge id=":J35_0" function="internal">
        <lane id=":J35_0_0" index="0" disallow="pedestrian motorcycle moped bicycle aircraft wheelchair scooter drone custom1 custom2" speed="13.89" length="0.30" shape="1480.86,-276.15 1480.86,-275.85"/>
        <lane id=":J35_0_1" index="1" disallow="pedestrian motorcycle moped bicycle aircraft wheelchair scooter drone custom1 custom2" speed="13.89" length="0.30" shape="1477.66,-276.15 1477.66,-275.85"/>
        <lane id=":J35_0_2" index="2" disallow="pedestrian motorcycle moped bicycle aircraft wheelchair scooter drone custom1 custom2" speed="13.89" length="0.30" shape="1474.46,-276.15 1474.46,-275.85"/>
    </edge>
    <edge id=":J38_0" function="internal">
        <lane id=":J38_0_0" index="0" disallow="bus" speed="13.89" length="18.62" shape="1384.46,-408.74 1378.90,-408.99 1374.96,-409.28 1371.26,-408.72 1366.43,-406.40"/>
        <lane id=":J38_0_1" index="1" disallow="bus" speed="13.89" length="20.31" shape="1384.46,-408.74 1378.42,-409.47 1374.11,-410.79 1370.05,-411.20 1364.79,-409.15"/>
    </edge>
    <edge id=":J38_2" function="internal">
        <lane id=":J38_2_0" index="0" speed="13.89" length="19.43" shape="1384.43,-411.94 1378.74,-412.44 1374.91,-413.63 1371.09,-414.82 1365.40,-415.34"/>
        <lane id=":J38_2_1" index="1" speed="13.89" length="19.43" shape="1384.39,-415.14 1378.71,-415.64 1374.89,-416.83 1371.07,-418.02 1365.38,-418.54"/>
    </edge>
    <edge id=":J38_4" function="internal">
        <lane id=":J38_4_0" index="0" speed="10.40" length="24.77" shape="1384.36,-418.34 1379.08,-419.44 1375.29,-422.85 1373.00,-428.59 1372.19,-436.64"/>
        <lane id=":J38_4_1" index="1" speed="9.94" length="22.51" shape="1384.36,-418.34 1380.48,-419.45 1377.69,-422.88 1376.00,-428.61 1375.39,-436.66"/>
        <lane id=":J38_4_2" index="2" speed="9.50" length="20.50" shape="1384.36,-418.34 1381.88,-419.46 1380.09,-422.90 1379.00,-428.64 1378.59,-436.69"/>
    </edge>
    <edge id=":J38_7" function="internal">
        <lane id=":J38_7_0" index="0" speed="7.58" length="12.68" shape="1365.31,-427.86 1368.34,-428.42 1370.50,-430.07 1371.78,-432.81 1372.19,-436.64"/>
        <lane id=":J38_7_1" index="1" speed="8.89" length="17.83" shape="1365.34,-424.66 1369.76,-425.42 1372.92,-427.68 1374.79,-431.42 1375.39,-436.66"/>
        <lane id=":J38_7_2" index="2" speed="9.48" length="20.41" shape="1365.34,-424.66 1371.16,-425.43 1375.32,-427.68 1377.79,-431.44 1378.59,-436.69"/>
    </edge>
    <edge id=":J38_10" function="internal">
        <lane id=":J38_10_0" index="0" speed="13.89" length="19.86" shape="1365.34,-424.66 1371.00,-425.17 1374.80,-426.27 1378.61,-427.39 1384.26,-427.94"/>
        <lane id=":J38_10_1" index="1" speed="13.89" length="19.86" shape="1365.36,-421.46 1371.29,-422.97 1374.80,-426.27 1378.30,-429.58 1384.23,-431.14"/>
        <lane id=":J38_10_2" index="2" speed="13.89" length="19.86" shape="1365.36,-421.46 1371.02,-421.97 1374.83,-423.07 1378.64,-424.19 1384.30,-424.74"/>
        <lane id=":J38_10_3" index="3" speed="13.89" length="19.86" shape="1365.36,-421.46 1384.33,-421.54"/>
    </edge>
    <edge id=":J38_14" function="internal">
        <lane id=":J38_14_0" index="0" disallow="bus" speed="5.65" length="9.26" shape="1372.28,-403.07 1371.91,-405.84 1370.82,-407.31 1368.99,-407.50 1366.43,-406.40"/>
    </edge>
    <edge id=":J38_15" function="internal">
        <lane id=":J38_15_0" index="0" speed="8.36" length="15.70" shape="1372.28,-403.07 1371.85,-408.45 1370.57,-412.29 1368.42,-414.59 1365.40,-415.34"/>
    </edge>
    <edge id=":J38_16" function="internal">
        <lane id=":J38_16_0" index="0" speed="13.89" length="33.59" shape="1372.28,-403.07 1372.19,-436.64"/>
        <lane id=":J38_16_1" index="1" speed="13.89" length="33.59" shape="1375.48,-403.07 1375.39,-436.66"/>
    </edge>
    <edge id=":J38_18" function="internal">
        <lane id=":J38_18_0" index="0" disallow="bus" speed="8.14" length="4.89" shape="1378.68,-403.06 1377.95,-407.90"/>
    </edge>
    <edge id=":J38_19" function="internal">
        <lane id=":J38_19_0" index="0" speed="13.89" length="33.62" shape="1378.68,-403.06 1378.59,-436.69"/>
    </edge>
    <edge id=":J38_20" function="internal">
        <lane id=":J38_20_0" index="0" speed="11.40" length="29.64" shape="1378.68,-403.06 1379.04,-415.32 1380.08,-424.09 1381.82,-429.36 1384.23,-431.14"/>
        <lane id=":J38_20_1" index="1" speed="10.82" length="26.59" shape="1378.68,-403.06 1379.04,-413.92 1380.09,-421.69 1381.83,-426.36 1384.26,-427.94"/>
        <lane id=":J38_20_2" index="2" speed="10.21" length="23.56" shape="1378.68,-403.06 1379.04,-412.52 1380.10,-419.29 1381.85,-423.36 1384.30,-424.74"/>
        <lane id=":J38_20_3" index="3" speed="9.57" length="20.56" shape="1378.68,-403.06 1379.04,-411.12 1380.10,-416.89 1381.87,-420.36 1384.33,-421.54"/>
    </edge>
    <edge id=":J38_24" function="internal">
        <lane id=":J38_24_0" index="0" disallow="bus" speed="8.14" length="15.87" shape="1377.95,-407.90 1377.82,-408.83 1375.21,-411.77 1370.87,-411.87 1364.79,-409.15"/>
    </edge>
    <edge id=":J44_0" function="internal">
        <lane id=":J44_0_0" index="0" speed="13.61" length="14.59" shape="1335.39,-424.60 1339.20,-425.39 1341.24,-427.46 1342.97,-430.38 1345.85,-433.69"/>
        <lane id=":J44_0_1" index="1" speed="13.89" length="15.45" shape="1335.39,-424.60 1339.77,-425.03 1342.58,-426.34 1345.06,-428.56 1348.45,-431.70"/>
    </edge>
    <edge id=":J44_2" function="internal">
        <lane id=":J44_2_0" index="0" speed="13.89" length="15.15" shape="1335.39,-424.60 1339.84,-425.10 1342.80,-426.20 1345.77,-427.31 1350.22,-427.82"/>
        <lane id=":J44_2_1" index="1" disallow="pedestrian motorcycle moped bicycle scooter" speed="13.89" length="15.15" shape="1335.39,-421.40 1339.84,-421.90 1342.81,-423.00 1345.77,-424.11 1350.23,-424.62"/>
        <lane id=":J44_2_2" index="2" disallow="pedestrian motorcycle moped bicycle scooter" speed="13.89" length="15.15" shape="1335.39,-421.40 1350.23,-421.42"/>
    </edge>
    <edge id=":J45_0" function="internal">
        <lane id=":J45_0_0" index="0" speed="13.89" length="12.11" shape="1372.17,-439.96 1372.12,-452.09"/>
        <lane id=":J45_0_1" index="1" speed="13.89" length="12.11" shape="1375.37,-439.98 1375.32,-452.09"/>
        <lane id=":J45_0_2" index="2" speed="13.89" length="12.11" shape="1378.57,-440.00 1378.52,-452.09"/>
    </edge>
    <edge id=":J45_3" function="internal">
        <lane id=":J45_3_0" index="0" speed="7.86" length="9.10" shape="1366.21,-445.76 1368.80,-447.19 1370.64,-448.72 1371.75,-450.36 1372.12,-452.09"/>
        <lane id=":J45_3_1" index="1" speed="9.20" length="12.72" shape="1367.57,-442.86 1370.96,-444.80 1373.38,-446.98 1374.84,-449.41 1375.32,-452.09"/>
    </edge>
    <edge id=":J47_0" function="internal">
        <lane id=":J47_0_0" index="0" disallow="pedestrian motorcycle moped bicycle aircraft wheelchair scooter drone custom1 custom2" speed="13.89" length="0.30" shape="1414.83,-538.66 1414.83,-538.96"/>
        <lane id=":J47_0_1" index="1" disallow="pedestrian motorcycle moped bicycle aircraft wheelchair scooter drone custom1 custom2" speed="13.89" length="0.30" shape="1418.03,-538.66 1418.03,-538.96"/>
        <lane id=":J47_0_2" index="2" disallow="pedestrian motorcycle moped bicycle aircraft wheelchair scooter drone custom1 custom2" speed="13.89" length="0.30" shape="1421.23,-538.66 1421.23,-538.96"/>
    </edge>
    <edge id=":J48_0" function="internal">
        <lane id=":J48_0_0" index="0" disallow="bus" speed="13.89" length="15.94" shape="1312.65,-408.46 1308.91,-411.00 1306.37,-413.05 1303.66,-414.41 1299.38,-414.90"/>
        <lane id=":J48_0_1" index="1" disallow="pedestrian bus motorcycle moped bicycle scooter" speed="13.89" length="15.94" shape="1314.23,-411.25 1310.06,-414.02 1307.20,-416.19 1304.15,-417.60 1299.38,-418.10"/>
    </edge>
    <edge id=":J48_2" function="internal">
        <lane id=":J48_2_0" index="0" speed="13.89" length="15.81" shape="1315.20,-414.99 1299.38,-414.90"/>
        <lane id=":J48_2_1" index="1" disallow="pedestrian motorcycle moped bicycle scooter" speed="13.89" length="15.81" shape="1315.18,-418.19 1299.38,-418.10"/>
    </edge>

    <edge id="-E7" from="J30" to="J23" priority="-1">
        <lane id="-E7_0" index="0" speed="13.89" length="0.43" shape="1513.01,-431.51 1513.44,-431.51"/>
        <lane id="-E7_1" index="1" speed="13.89" length="0.43" shape="1513.01,-428.31 1513.44,-428.31"/>
        <lane id="-E7_2" index="2" speed="13.89" length="0.43" shape="1513.01,-425.11 1513.44,-425.11"/>
        <lane id="-E7_3" index="3" speed="13.89" length="0.43" shape="1513.01,-421.91 1513.44,-421.91"/>
    </edge>
    <edge id="21" from="J38" to="J45" priority="3">
        <lane id="21_0" index="0" speed="13.89" length="3.31" shape="1372.19,-436.64 1372.17,-439.96"/>
        <lane id="21_1" index="1" speed="13.89" length="3.31" shape="1375.39,-436.66 1375.37,-439.98"/>
        <lane id="21_2" index="2" speed="13.89" length="3.31" shape="1378.59,-436.69 1378.57,-440.00"/>
    </edge>
    <edge id="E0" from="J38" to="J48" priority="3">
        <lane id="E0_0" index="0" speed="13.89" length="50.20" shape="1365.40,-415.34 1315.20,-414.99"/>
        <lane id="E0_1" index="1" speed="13.89" length="50.20" shape="1365.38,-418.54 1315.18,-418.19"/>
    </edge>
    <edge id="E21" from="J44" to="J45" priority="3" shape="1340.52,-419.80 1347.23,-428.56 1352.14,-432.74 1365.77,-440.26 1380.12,-446.96">
        <lane id="E21_0" index="0" speed="13.89" length="22.98" shape="1345.85,-433.69 1349.40,-436.71 1363.59,-444.54 1366.21,-445.76"/>
        <lane id="E21_1" index="1" speed="13.89" length="22.98" shape="1348.45,-431.70 1351.23,-434.06 1365.04,-441.69 1367.57,-442.86"/>
    </edge>
    <edge id="E7" from="J23" to="J30" priority="-1">
        <lane id="E7_0" index="0" speed="13.89" length="0.43" shape="1513.45,-409.11 1513.02,-409.11"/>
        <lane id="E7_1" index="1" speed="13.89" length="0.43" shape="1513.45,-412.31 1513.02,-412.31"/>
        <lane id="E7_2" index="2" speed="13.89" length="0.43" shape="1513.45,-415.51 1513.02,-415.51"/>
        <lane id="E7_3" index="3" speed="13.89" length="0.43" shape="1513.45,-418.71 1513.02,-418.71"/>
    </edge>
    <edge id="L1" from="J23" to="J4" priority="3">
        <lane id="L1_0" index="0" speed="13.89" length="331.53" shape="1531.05,-425.10 1862.57,-424.86"/>
        <lane id="L1_1" index="1" speed="13.89" length="331.53" shape="1531.04,-421.90 1862.57,-421.66"/>
    </edge>
    <edge id="L10" from="J33" to="J36" priority="3">
        <lane id="L10_0" index="0" disallow="pedestrian motorcycle moped bicycle aircraft wheelchair scooter drone custom1 custom2" speed="13.89" length="224.56" shape="1390.63,-436.86 1390.95,-661.42"/>
        <lane id="L10_1" index="1" disallow="pedestrian motorcycle moped bicycle aircraft wheelchair scooter drone custom1 custom2" speed="13.89" length="224.56" shape="1393.83,-436.85 1394.15,-661.41"/>
    </edge>
    <edge id="L11" from="J30" to="J33" priority="3" length="85.00">
        <lane id="L11_0" index="0" disallow="bus truck" speed="13.89" length="85.00" shape="1498.62,-409.09 1399.48,-408.86"/>
        <lane id="L11_1" index="1" disallow="bus truck" speed="13.89" length="85.00" shape="1498.61,-412.29 1399.48,-412.06"/>
        <lane id="L11_2" index="2" disallow="moped bicycle scooter" speed="13.89" length="85.00" shape="1498.60,-415.49 1399.47,-415.26"/>
        <lane id="L11_3" index="3" disallow="moped bicycle scooter" speed="13.89" length="85.00" shape="1498.60,-418.69 1399.46,-418.46"/>
    </edge>
    <edge id="L12" from="J33" to="J30" priority="3" length="85.00">
        <lane id="L12_0" index="0" disallow="bus truck" speed="13.89" length="85.00" shape="1399.43,-431.26 1498.57,-431.49"/>
        <lane id="L12_1" index="1" disallow="bus truck" speed="13.89" length="85.00" shape="1399.44,-428.06 1498.57,-428.29"/>
        <lane id="L12_2" index="2" disallow="moped bicycle scooter" speed="13.89" length="85.00" shape="1399.45,-424.86 1498.58,-425.09"/>
        <lane id="L12_3" index="3" disallow="moped bicycle scooter" speed="13.89" length="85.00" shape="1399.45,-421.66 1498.59,-421.89"/>
    </edge>
    <edge id="L13" from="J46" to="J47" priority="3">
        <lane id="L13_0" index="0" disallow="pedestrian motorcycle moped bicycle aircraft wheelchair scooter drone custom1 custom2" speed="13.89" length="411.27" shape="1414.79,-127.39 1414.83,-538.66"/>