<?xml version="1.0" encoding="UTF-8"?>

<!-- generated on 2025-03-21 23:58:00 by Eclipse SUMO netedit Version 1.21.0
<neteditConfiguration xmlns:xsi="http://www.w3.org/2001/XMLSchema-instance" xsi:noNamespaceSchemaLocation="http://sumo.dlr.de/xsd/neteditConfiguration.xsd">

    <input>
        <sumocfg-file value="C:\Users\Nguyen Minh Quan\OneDrive\OneDrive - student.vgu.edu.vn\Desktop\SUMO simulation\New folder\Simple T Junction\simpleT.sumocfg"/>
        <additional-files value=""/>
        <route-files value="C:\Users\Nguyen Minh Quan\OneDrive\OneDrive - student.vgu.edu.vn\Desktop\SUMO simulation\New folder\Simple T Junction\simpleT.rou.xml"/>
        <sumo-net-file value="C:\Users\Nguyen Minh Quan\OneDrive\OneDrive - student.vgu.edu.vn\Desktop\SUMO simulation\New folder\Simple T Junction\simpleT.net.xml"/>
    </input>

    <output>
        <output-file value="C:\Users\Nguyen Minh Quan\OneDrive\OneDrive - student.vgu.edu.vn\Desktop\SUMO simulation\New folder\Simple T Junction\simpleT.net.xml"/>
    </output>

    <processing>
        <geometry.min-radius.fix.railways value="false"/>
        <geometry.max-grade.fix value="false"/>
        <offset.disable-normalization value="true"/>
        <lefthand value="0"/>
    </processing>

    <junctions>
        <no-turnarounds value="true"/>
        <junctions.corner-detail value="5"/>
        <junctions.limit-turn-speed value="5.50"/>
        <rectangular-lane-cut value="0"/>
    </junctions>

    <pedestrian>
        <walkingareas value="0"/>
    </pedestrian>

    <netedit>
        <ignore.routeelements value="false"/>
    </netedit>

</neteditConfiguration>
-->

<net version="1.20" junctionCornerDetail="5" limitTurnSpeed="5.50" xmlns:xsi="http://www.w3.org/2001/XMLSchema-instance" xsi:noNamespaceSchemaLocation="http://sumo.dlr.de/xsd/net_file.xsd">

    <location netOffset="0.00,0.00" convBoundary="0.00,-205.26,2000.00,1000.00" origBoundary="-10000000000.00,-10000000000.00,10000000000.00,10000000000.00" projParameter="!"/>

    <edge id=":3_0" function="internal">
        <lane id=":3_0_0" index="0" speed="6.51" length="9.03" shape="992.00,13.60 991.65,11.15 990.60,9.40 988.85,8.35 986.40,8.00"/>
        <lane id=":3_0_1" index="1" speed="8.00" length="14.19" shape="995.20,13.60 994.65,9.75 993.00,7.00 990.25,5.35 986.40,4.80"/>
    </edge>
    <edge id=":3_2" function="internal">
        <lane id=":3_2_0" index="0" speed="13.89" length="18.41" shape="998.40,13.60 997.39,8.15 995.18,4.67 992.99,1.20 992.06,-4.25"/>
        <lane id=":3_2_1" index="1" speed="13.89" length="18.41" shape="998.40,13.60 997.89,8.27 996.78,4.70 995.70,1.12 995.26,-4.21"/>
        <lane id=":3_2_2" index="2" speed="13.89" length="18.41" shape="998.40,13.60 998.46,-4.16"/>
    </edge>
    <edge id=":3_5" function="internal">
        <lane id=":3_5_0" index="0" speed="6.51" length="9.03" shape="1013.60,8.00 1011.15,8.35 1009.40,9.40 1008.35,11.15 1008.00,13.60"/>
    </edge>
    <edge id=":3_6" function="internal">
        <lane id=":3_6_0" index="0" speed="13.89" length="27.20" shape="1013.60,8.00 986.40,8.00"/>
        <lane id=":3_6_1" index="1" speed="13.89" length="27.20" shape="1013.60,4.80 986.40,4.80"/>
        <lane id=":3_6_2" index="2" speed="13.89" length="27.20" shape="1013.60,1.60 986.40,1.60"/>
    </edge>
    <edge id=":3_9" function="internal">
        <lane id=":3_9_0" index="0" speed="9.48" length="20.56" shape="1013.60,1.60 1005.55,1.24 999.80,0.15 996.38,-1.67 995.26,-4.21"/>
        <lane id=":3_9_1" index="1" speed="8.80" length="17.56" shape="1013.60,1.60 1006.95,1.24 1002.20,0.16 999.38,-1.64 998.46,-4.16"/>
    </edge>
    <edge id=":3_11" function="internal">
        <lane id=":3_11_0" index="0" speed="13.89" length="18.25" shape="1008.06,-4.02 1008.00,13.60"/>
        <lane id=":3_11_1" index="1" speed="13.89" length="18.25" shape="1008.06,-4.02 1007.50,1.25 1006.38,4.79 1005.29,8.33 1004.80,13.60"/>
        <lane id=":3_11_2" index="2" speed="13.89" length="18.25" shape="1008.06,-4.02 1006.99,1.37 1004.78,4.79 1002.59,8.21 1001.60,13.60"/>
    </edge>
    <edge id=":3_14" function="internal">
        <lane id=":3_14_0" index="0" speed="10.01" length="7.42" shape="1004.86,-4.07 1003.66,-0.19 1001.04,1.90"/>
        <lane id=":3_14_1" index="1" speed="8.90" length="2.10" shape="1001.66,-4.12 1000.89,-2.17"/>
    </edge>
    <edge id=":3_16" function="internal">
        <lane id=":3_16_0" index="0" speed="10.01" length="15.13" shape="1001.04,1.90 1000.18,2.58 994.43,4.25 986.40,4.80"/>
    </edge>
    <edge id=":3_17" function="internal">
        <lane id=":3_17_0" index="0" speed="8.90" length="15.51" shape="1000.89,-2.17 1000.67,-1.61 997.80,0.17 993.04,1.24 986.40,1.60"/>
    </edge>
    <edge id=":J10_0" function="internal">
        <lane id=":J10_0_0" index="0" speed="6.65" length="9.39" shape="1013.91,-13.46 1011.41,-13.09 1009.60,-11.99 1008.50,-10.15 1008.11,-7.58"/>
    </edge>
    <edge id=":J10_1" function="internal">
        <lane id=":J10_1_0" index="0" disallow="motorcycle moped bicycle aircraft wheelchair scooter drone custom1 custom2" speed="13.89" length="27.35" shape="1013.91,-13.46 986.57,-13.43"/>
        <lane id=":J10_1_1" index="1" disallow="motorcycle moped bicycle aircraft wheelchair scooter drone custom1 custom2" speed="13.89" length="27.35" shape="1013.91,-16.66 986.56,-16.63"/>
        <lane id=":J10_1_2" index="2" disallow="motorcycle moped bicycle aircraft wheelchair scooter drone custom1 custom2" speed="13.89" length="27.35" shape="1013.91,-19.86 986.56,-19.83"/>
    </edge>
    <edge id=":J10_4" function="internal">
        <lane id=":J10_4_0" index="0" speed="9.53" length="20.50" shape="1013.91,-19.86 1005.86,-20.20 1000.11,-21.25 996.65,-23.00 995.49,-25.46"/>
        <lane id=":J10_4_1" index="1" speed="8.85" length="17.52" shape="1013.91,-19.86 1007.26,-20.20 1002.51,-21.26 999.65,-23.01 998.69,-25.47"/>
    </edge>
    <edge id=":J10_6" function="internal">
        <lane id=":J10_6_0" index="0" speed="13.89" length="17.88" shape="1008.29,-25.52 1008.11,-7.58"/>
        <lane id=":J10_6_1" index="1" speed="13.89" length="17.88" shape="1005.09,-25.51 1004.91,-7.63"/>
        <lane id=":J10_6_2" index="2" speed="13.89" length="17.88" shape="1001.89,-25.49 1001.71,-7.67"/>
    </edge>
    <edge id=":J10_9" function="internal">
        <lane id=":J10_9_0" index="0" disallow="motorcycle moped bicycle aircraft wheelchair scooter drone custom1 custom2" speed="8.85" length="2.17" shape="1001.89,-25.49 1001.11,-23.47"/>
    </edge>
    <edge id=":J10_14" function="internal">
        <lane id=":J10_14_0" index="0" disallow="motorcycle moped bicycle aircraft wheelchair scooter drone custom1 custom2" speed="8.85" length="15.49" shape="1001.11,-23.47 1000.94,-23.02 998.07,-21.26 993.28,-20.19 986.56,-19.83"/>
    </edge>
    <edge id=":J10_10" function="internal">
        <lane id=":J10_10_0" index="0" disallow="motorcycle moped bicycle aircraft wheelchair scooter drone custom1 custom2" speed="6.47" length="9.03" shape="992.11,-7.81 991.80,-10.27 990.77,-12.03 989.02,-13.08 986.57,-13.43"/>
    </edge>
    <edge id=":J10_11" function="internal">
        <lane id=":J10_11_0" index="0" speed="13.89" length="17.69" shape="992.11,-7.81 992.29,-25.44"/>
        <lane id=":J10_11_1" index="1" speed="13.89" length="17.69" shape="995.31,-7.77 995.49,-25.46"/>
        <lane id=":J10_11_2" index="2" speed="13.89" length="17.69" shape="998.51,-7.72 998.69,-25.47"/>
    </edge>
    <edge id=":J13_0" function="internal">
        <lane id=":J13_0_0" index="0" speed="13.89" length="17.75" shape="991.95,-95.66 992.01,-113.45"/>
        <lane id=":J13_0_1" index="1" speed="13.89" length="17.75" shape="995.15,-95.68 995.21,-113.43"/>
        <lane id=":J13_0_2" index="2" speed="13.89" length="17.75" shape="998.35,-95.69 998.41,-113.41"/>
    </edge>
    <edge id=":J13_3" function="internal">
        <lane id=":J13_3_0" index="0" disallow="pedestrian motorcycle moped bicycle aircraft wheelchair scooter drone custom1 custom2" speed="8.82" length="2.15" shape="998.35,-95.69 999.11,-97.71"/>
    </edge>
    <edge id=":J13_14" function="internal">
        <lane id=":J13_14_0" index="0" disallow="pedestrian motorcycle moped bicycle aircraft wheelchair scooter drone custom1 custom2" speed="8.82" length="15.41" shape="999.11,-97.71 999.29,-98.17 1002.14,-99.94 1006.90,-101.00 1013.58,-101.34"/>
    </edge>
    <edge id=":J13_4" function="internal">
        <lane id=":J13_4_0" index="0" disallow="pedestrian motorcycle moped bicycle aircraft wheelchair scooter drone custom1 custom2" speed="6.50" length="9.03" shape="1008.01,-113.36 1008.35,-110.90 1009.39,-109.15 1011.13,-108.10 1013.58,-107.74"/>
    </edge>
    <edge id=":J13_5" function="internal">
        <lane id=":J13_5_0" index="0" speed="13.89" length="17.65" shape="1008.01,-113.36 1007.95,-95.74"/>
        <lane id=":J13_5_1" index="1" speed="13.89" length="17.65" shape="1004.81,-113.38 1004.75,-95.72"/>
        <lane id=":J13_5_2" index="2" speed="13.89" length="17.65" shape="1001.61,-113.39 1001.55,-95.71"/>
    </edge>
    <edge id=":J13_8" function="internal">
        <lane id=":J13_8_0" index="0" speed="6.56" length="9.15" shape="986.33,-107.76 988.80,-108.12 990.57,-109.18 991.64,-110.96 992.01,-113.45"/>
    </edge>
    <edge id=":J13_9" function="internal">
        <lane id=":J13_9_0" index="0" disallow="pedestrian motorcycle moped bicycle aircraft wheelchair scooter drone custom1 custom2" speed="13.89" length="27.25" shape="986.33,-107.76 1013.58,-107.74"/>
        <lane id=":J13_9_1" index="1" disallow="pedestrian motorcycle moped bicycle aircraft wheelchair scooter drone custom1 custom2" speed="13.89" length="27.25" shape="986.33,-104.56 1013.58,-104.54"/>
        <lane id=":J13_9_2" index="2" disallow="pedestrian motorcycle moped bicycle aircraft wheelchair scooter drone custom1 custom2" speed="13.89" length="27.25" shape="986.33,-101.36 1013.58,-101.34"/>
    </edge>
    <edge id=":J13_12" function="internal">
        <lane id=":J13_12_0" index="0" speed="9.53" length="20.51" shape="986.33,-101.36 994.38,-101.01 1000.13,-99.95 1003.59,-98.19 1004.75,-95.72"/>
        <lane id=":J13_12_1" index="1" speed="8.85" length="17.54" shape="986.33,-101.36 992.98,-101.01 997.73,-99.95 1000.59,-98.18 1001.55,-95.71"/>
    </edge>
    <edge id=":J16_0" function="internal">
        <lane id=":J16_0_0" index="0" speed="6.54" length="9.11" shape="1008.02,-133.96 1008.38,-131.49 1009.44,-129.72 1011.20,-128.66 1013.66,-128.30"/>
    </edge>
    <edge id=":J16_1" function="internal">
        <lane id=":J16_1_0" index="0" speed="13.89" length="17.71" shape="1008.02,-133.96 1008.03,-116.22"/>
        <lane id=":J16_1_1" index="1" speed="13.89" length="17.71" shape="1004.82,-133.96 1004.83,-116.24"/>
        <lane id=":J16_1_2" index="2" speed="13.89" length="17.71" shape="1001.62,-133.95 1001.63,-116.26"/>
    </edge>
    <edge id=":J16_4" function="internal">
        <lane id=":J16_4_0" index="0" speed="6.50" length="9.03" shape="986.43,-128.33 988.88,-128.68 990.63,-129.73 991.68,-131.48 992.02,-133.93"/>
    </edge>
    <edge id=":J16_5" function="internal">
        <lane id=":J16_5_0" index="0" speed="13.89" length="27.23" shape="986.43,-128.33 1013.66,-128.30"/>
        <lane id=":J16_5_1" index="1" speed="13.89" length="27.23" shape="986.43,-125.13 1013.66,-125.10"/>
        <lane id=":J16_5_2" index="2" speed="13.89" length="27.23" shape="986.42,-121.93 1013.65,-121.90"/>
    </edge>
    <edge id=":J16_8" function="internal">
        <lane id=":J16_8_0" index="0" speed="9.50" length="20.53" shape="986.42,-121.93 994.49,-121.57 1000.24,-120.50 1003.69,-118.73 1004.83,-116.24"/>
        <lane id=":J16_8_1" index="1" speed="8.82" length="17.54" shape="986.42,-121.93 993.09,-121.57 997.84,-120.51 1000.69,-118.74 1001.63,-116.26"/>
    </edge>
    <edge id=":J16_10" function="internal">
        <lane id=":J16_10_0" index="0" speed="13.89" length="17.64" shape="992.03,-116.32 992.02,-133.93"/>
        <lane id=":J16_10_1" index="1" speed="13.89" length="17.64" shape="995.23,-116.30 995.22,-133.94"/>
        <lane id=":J16_10_2" index="2" speed="13.89" length="17.64" shape="998.43,-116.28 998.42,-133.94"/>
    </edge>
    <edge id=":J16_13" function="internal">
        <lane id=":J16_13_0" index="0" speed="8.85" length="2.09" shape="998.43,-116.28 999.19,-118.23"/>
    </edge>
    <edge id=":J16_14" function="internal">
        <lane id=":J16_14_0" index="0" speed="8.85" length="15.44" shape="999.19,-118.23 999.39,-118.75 1002.25,-120.51 1007.00,-121.56 1013.65,-121.90"/>
    </edge>

    <edge id="-E15" from="J16" to="J13" priority="-1">
        <lane id="-E15_0" index="0" speed="13.89" length="2.87" shape="1008.03,-116.22 1008.01,-113.36"/>
        <lane id="-E15_1" index="1" speed="13.89" length="2.87" shape="1004.83,-116.24 1004.81,-113.38"/>
        <lane id="-E15_2" index="2" speed="13.89" length="2.87" shape="1001.63,-116.26 1001.61,-113.39"/>
    </edge>
    <edge id="-E16" from="J10" to="3" priority="-1">
        <lane id="-E16_0" index="0" speed="13.89" length="3.56" shape="1008.11,-7.58 1008.06,-4.02"/>
        <lane id="-E16_1" index="1" speed="13.89" length="3.56" shape="1004.91,-7.63 1004.86,-4.07"/>
        <lane id="-E16_2" index="2" speed="13.89" length="3.56" shape="1001.71,-7.67 1001.66,-4.12"/>
    </edge>
    <edge id="E0" from="J0" to="J1" priority="-1">
        <lane id="E0_0" index="0" speed="13.89" length="288.34" shape="1140.08,-39.40 851.74,-40.69"/>
    </edge>
    <edge id="E1" from="J2" to="J3" priority="-1" shape="849.90,-79.05 862.71,-79.19 885.46,-79.58 909.54,-79.30 1143.63,-78.57">
        <lane id="E1_0" index="0" speed="13.89" length="293.76" shape="849.88,-80.65 862.69,-80.79 885.46,-81.18 909.55,-80.90 1143.63,-80.17"/>
    </edge>
    <edge id="E15" from="J13" to="J16" priority="-1">
        <lane id="E15_0" index="0" speed="13.89" length="2.87" shape="992.01,-113.45 992.03,-116.32"/>
        <lane id="E15_1" index="1" speed="13.89" length="2.87" shape="995.21,-113.43 995.23,-116.30"/>
        <lane id="E15_2" index="2" speed="13.89" length="2.87" shape="998.41,-113.41 998.43,-116.28"/>
    </edge>
    <edge id="E16" from="3" to="J10" priority="-1">
        <lane id="E16_0" index="0" speed="13.89" length="3.56" shape="992.06,-4.25 992.11,-7.81"/>
        <lane id="E16_1" index="1" speed="13.89" length="3.56" shape="995.26,-4.21 995.31,-7.77"/>
        <lane id="E16_2" index="2" speed="13.89" length="3.56" shape="998.46,-4.16 998.51,-7.72"/>
    </edge>
    <edge id="L1" from="4" to="3" priority="3" length="986.40">
        <lane id="L1_0" index="0" speed="13.89" length="986.40" shape="2000.00,8.00 1013.60,8.00"/>
        <lane id="L1_1" index="1" speed="13.89" length="986.40" shape="2000.00,4.80 1013.60,4.80"/>
        <lane id="L1_2" index="2" speed="13.89" length="986.40" shape="2000.00,1.60 1013.60,1.60"/>
    </edge>
    <edge id="L10" from="3" to="2" priority="3">
        <lane id="L10_0" index="0" speed="13.89" length="986.40" shape="986.40,8.00 0.00,8.00"/>
        <lane id="L10_1" index="1" speed="13.89" length="986.40" shape="986.40,4.80 0.00,4.80"/>
        <lane id="L10_2" index="2" speed="13.89" length="986.40" shape="986.40,1.60 0.00,1.60"/>
    </edge>
    <edge id="L11" from="J10" to="J11" priority="-1">
        <lane id="L11_0" index="0" disallow="motorcycle moped bicycle aircraft wheelchair scooter drone custom1 custom2" speed="13.89" length="316.83" shape="986.57,-13.43 669.74,-12.96"/>
        <lane id="L11_1" index="1" disallow="motorcycle moped bicycle aircraft wheelchair scooter drone custom1 custom2" speed="13.89" length="316.83" shape="986.56,-16.63 669.74,-16.16"/>
        <lane id="L11_2" index="2" disallow="motorcycle moped bicycle aircraft wheelchair scooter drone custom1 custom2" speed="13.89" length="316.83" shape="986.56,-19.83 669.73,-19.36"/>
    </edge>
    <edge id="L12" from="J13" to="J14" priority="-1">
        <lane id="L12_0" index="0" disallow="pedestrian motorcycle moped bicycle aircraft wheelchair scooter drone custom1 custom2" speed="13.89" length="137.07" shape="1013.58,-107.74 1150.65,-107.57"/>
        <lane id="L12_1" index="1" disallow="pedestrian motorcycle moped bicycle aircraft wheelchair scooter drone custom1 custom2" speed="13.89" length="137.07" shape="1013.58,-104.54 1150.65,-104.37"/>
        <lane id="L12_2" index="2" disallow="pedestrian motorcycle moped bicycle aircraft wheelchair scooter drone custom1 custom2" speed="13.89" length="137.07" shape="1013.58,-101.34 1150.64,-101.17"/>
    </edge>
    <edge id="L13" from="J16" to="J18" priority="-1">
        <lane id="L13_0" index="0" speed="13.89" length="71.31" shape="992.02,-133.93 991.88,-205.24"/>
        <lane id="L13_1" index="1" speed="13.89" length="71.31" shape="995.22,-133.94 995.08,-205.25"/>
        <lane id="L13_2" index="2" speed="13.89" length="71.31" shape="998.42,-133.94 998.28,-205.26"/>
    </edge>
    <edge id="L14" from="J16" to="J17" priority="-1">
        <lane id="L14_0" index="0" speed="13.89" length="127.55" shape="1013.66,-128.30 1141.21,-128.09"/>
        <lane id="L14_1" index="1" speed="13.89" length="127.55" shape="1013.66,-125.10 1141.21,-124.89"/>
        <lane id="L14_2" index="2" speed="13.89" length="127.55" shape="1013.65,-121.90 1141.20,-121.69"/>
    </edge>
    <edge id="L2" from="J9" to="J10" priority="-1">
        <lane id="L2_0" index="0" speed="13.89" length="356.22" shape="1370.13,-13.61 1013.91,-13.46"/>
        <lane id="L2_1" index="1" speed="13.89" length="356.22" shape="1370.13,-16.81 1013.91,-16.66"/>
        <lane id="L2_2" index="2" speed="13.89" length="356.22" shape="1370.13,-20.01 1013.91,-19.86"/>
    </edge>
    <edge id="L3" from="J12" to="J13" priority="-1">
        <lane id="L3_0" index="0" speed="13.89" length="145.94" shape="840.39,-107.79 986.33,-107.76"/>
        <lane id="L3_1" index="1" speed="13.89" length="145.94" shape="840.39,-104.59 986.33,-104.56"/>
        <lane id="L3_2" index="2" speed="13.89" length="145.94" shape="840.39,-101.39 986.33,-101.36"/>
    </edge>
    <edge id="L4" from="J15" to="J16" priority="-1">
        <lane id="L4_0" index="0" speed="13.89" length="141.75" shape="844.68,-128.44 986.43,-128.33"/>
        <lane id="L4_1" index="1" speed="13.89" length="141.75" shape="844.67,-125.24 986.43,-125.13"/>
        <lane id="L4_2" index="2" speed="13.89" length="141.75" shape="844.67,-122.04 986.42,-121.93"/>
    </edge>
    <edge id="L5" from="J18" to="J16" priority="-1">
        <lane id="L5_0" index="0" speed="13.89" length="71.31" shape="1007.88,-205.28 1008.02,-133.96"/>
        <lane id="L5_1" index="1" speed="13.89" length="71.31" shape="1004.68,-205.27 1004.82,-133.96"/>
        <lane id="L5_2" index="2" speed="13.89" length="71.31" shape="1001.48,-205.26 1001.62,-133.95"/>
    </edge>
    <edge id="L6" from="J10" to="J13" priority="-1">
        <lane id="L6_0" index="0" speed="13.89" length="70.22" shape="992.29,-25.44 991.95,-95.66"/>
        <lane id="L6_1" index="1" speed="13.89" length="70.22" shape="995.49,-25.46 995.15,-95.68"/>
        <lane id="L6_2" index="2" speed="13.89" length="70.22" shape="998.69,-25.47 998.35,-95.69"/>
    </edge>
    <edge id="L7" from="J13" to="J10" priority="-1">
        <lane id="L7_0" index="0" speed="13.89" length="70.22" shape="1007.95,-95.74 1008.29,-25.52"/>
        <lane id="L7_1" index="1" speed="13.89" length="70.22" shape="1004.75,-95.72 1005.09,-25.51"/>
        <lane id="L7_2" index="2" speed="13.89" length="70.22" shape="1001.55,-95.71 1001.89,-25.49"/>
    </edge>
    <edge id="L8" from="6" to="3" priority="2">
        <lane id="L8_0" index="0" speed="13.89" length="986.40" shape="992.00,1000.00 992.00,13.60"/>
        <lane id="L8_1" index="1" speed="13.89" length="986.40" shape="995.20,1000.00 995.20,13.60"/>
        <lane id="L8_2" index="2" speed="13.89" length="986.40" shape="998.40,1000.00 998.40,13.60"/>
    </edge>
    <edge id="L9" from="3" to="6" priority="2">
        <lane id="L9_0" index="0" speed="13.89" length="986.40" shape="1008.00,13.60 1008.00,1000.00"/>
        <lane id="L9_1" index="1" speed="13.89" length="986.40" shape="1004.80,13.60 1004.80,1000.00"/>
        <lane id="L9_2" index="2" speed="13.89" length="986.40" shape="1001.60,13.60 1001.60,1000.00"/>
    </edge>

    <tlLogic id="3" type="static" programID="0" offset="0">
        <phase duration="50" state="GGGGGGrrrrrGGGgg"/>
        <phase duration="4"  state="yyyyyGrrrrryyyyy"/>
        <phase duration="44" state="rrrrrGrrrrrrrrrr"/>
        <phase duration="40" state="rrrrrGGGGggrrrrr"/>
        <phase duration="4"  state="rrrrrGyyyyyrrrrr"/>
    </tlLogic>
    <tlLogic id="J10" type="static" programID="0" offset="0">
        <phase duration="50" state="rrrrrrGGGgGGGG"/>
        <phase duration="4"  state="rrrrrryyyyyyyy"/>
        <phase duration="40" state="GGGGGGrrrrrrrG"/>
        <phase duration="4"  state="yyyyyyrrrrrrrr"/>
        <phase duration="44" state="rrrrrrrrrrrrrr"/>
    </tlLogic>
    <tlLogic id="J13" type="static" programID="0" offset="0">
        <phase duration="50" state="GGGgGGGGrrrrrr"/>
        <phase duration="4"  state="yyyyyyyyrrrrrr"/>
        <phase duration="40" state="rrrrrrrrGGGGGG"/>
        <phase duration="4"  state="rrrrrrrryyyyyy"/>
        <phase duration="44" state="rrrrrrrrrrrrrr"/>
    </tlLogic>
    <tlLogic id="J16" type="static" programID="0" offset="0">
        <phase duration="50" state="GGGgGGGGrrrrrr"/>
        <phase duration="4"  state="yyyyyyyyrrrrrr"/>
        <phase duration="44" state="rrrrGrrrrrrrrr"/>
        <phase duration="40" state="rrrrrrrrGGGGGG"/>
        <phase duration="4"  state="rrrrrrrryyyyyy"/>
    </tlLogic>

    <junction id="2" type="dead_end" x="0.00" y="0.00" incLanes="L10_0 L10_1 L10_2" intLanes="" shape="0.00,9.60 0.00,0.00"/>
    <junction id="3" type="traffic_light" x="1000.00" y="0.00" incLanes="L8_0 L8_1 L8_2 L1_0 L1_1 L1_2 -E16_0 -E16_1 -E16_2" intLanes=":3_0_0 :3_0_1 :3_2_0 :3_2_1 :3_2_2 :3_5_0 :3_6_0 :3_6_1 :3_6_2 :3_9_0 :3_9_1 :3_11_0 :3_11_1 :3_11_2 :3_16_0 :3_17_0" shape="990.40,13.60 1009.60,13.60 1010.04,11.38 1010.60,10.60 1011.38,10.04 1012.38,9.71 1013.60,9.60 1013.60,0.00 1011.39,-0.44 1010.62,-1.00 1010.07,-1.78 1009.75,-2.78 1009.66,-4.00 990.46,-4.28 989.98,-1.90 989.41,-1.07 988.63,-0.48 987.62,-0.12 986.40,0.00 986.40,9.60 988.62,10.04 989.40,10.60 989.96,11.38 990.29,12.38">
        <request index="0"  response="0000000111000000" foes="1100000111000000" cont="0"/>
        <request index="1"  response="0000000111000000" foes="1100000111000000" cont="0"/>
        <request index="2"  response="0000011111000000" foes="1100011111000000" cont="0"/>
        <request index="3"  response="0000011111000000" foes="1100011111000000" cont="0"/>
        <request index="4"  response="0000011111000000" foes="1100011111000000" cont="0"/>
        <request index="5"  response="0000000000000000" foes="0011100000000000" cont="0"/>
        <request index="6"  response="1100000000000000" foes="1111100000011111" cont="0"/>
        <request index="7"  response="1100000000000000" foes="1111100000011111" cont="0"/>
        <request index="8"  response="1100000000000000" foes="1111100000011111" cont="0"/>
        <request index="9"  response="1100000000000000" foes="1111100000011100" cont="0"/>
        <request index="10" response="1100000000000000" foes="1111100000011100" cont="0"/>
        <request index="11" response="0000011111100000" foes="0000011111100000" cont="0"/>
        <request index="12" response="0000011111100000" foes="0000011111100000" cont="0"/>
        <request index="13" response="0000011111100000" foes="0000011111100000" cont="0"/>
        <request index="14" response="0000011111011111" foes="0000011111011111" cont="1"/>
        <request index="15" response="0000011111011111" foes="0000011111011111" cont="1"/>
    </junction>
    <junction id="4" type="dead_end" x="2000.00" y="0.00" incLanes="" intLanes="" shape="2000.00,0.00 2000.00,9.60"/>
    <junction id="6" type="dead_end" x="1000.00" y="1000.00" incLanes="L9_0 L9_1 L9_2" intLanes="" shape="1000.00,1000.00 1009.60,1000.00 1000.00,1000.00"/>
    <junction id="J0" type="dead_end" x="1140.09" y="-41.00" incLanes="" intLanes="" shape="1140.09,-41.00 1140.08,-37.80"/>
    <junction id="J1" type="dead_end" x="851.75" y="-42.29" incLanes="E0_0" intLanes="" shape="851.74,-39.09 851.75,-42.29"/>
    <junction id="J10" type="traffic_light" x="1000.31" y="-21.45" incLanes="L2_0 L2_1 L2_2 L7_0 L7_1 L7_2 E16_0 E16_1 E16_2" intLanes=":J10_0_0 :J10_1_0 :J10_1_1 :J10_1_2 :J10_4_0 :J10_4_1 :J10_6_0 :J10_6_1 :J10_6_2 :J10_14_0 :J10_10_0 :J10_11_0 :J10_11_1 :J10_11_2" shape="1013.91,-11.86 1013.91,-21.46 1011.69,-21.91 1010.91,-22.47 1010.35,-23.27 1010.01,-24.28 1009.89,-25.53 990.69,-25.44 990.24,-23.21 989.67,-22.43 988.86,-21.88 987.82,-21.54 986.56,-21.43 986.57,-11.83 988.79,-11.39 989.56,-10.83 990.10,-10.06 990.42,-9.06 990.51,-7.84 1009.71,-7.56 1010.20,-9.95 1010.79,-10.78 1011.61,-11.38 1012.65,-11.74">
        <request index="0"  response="00000111000000" foes="00000111000000" cont="0"/>
        <request index="1"  response="11111111000000" foes="11111111000000" cont="0"/>
        <request index="2"  response="11111111000000" foes="11111111000000" cont="0"/>
        <request index="3"  response="11111111000000" foes="11111111000000" cont="0"/>
        <request index="4"  response="11101111000000" foes="11101111000000" cont="0"/>
        <request index="5"  response="11101111000000" foes="11101111000000" cont="0"/>
        <request index="6"  response="00000000000000" foes="00000000111111" cont="0"/>
        <request index="7"  response="00000000000000" foes="00000000111111" cont="0"/>
        <request index="8"  response="00000000000000" foes="00000000111111" cont="0"/>
        <request index="9"  response="11100000000000" foes="11100000111110" cont="1"/>
        <request index="10" response="00000000000000" foes="00000000001110" cont="0"/>
        <request index="11" response="00000000000000" foes="00001000111110" cont="0"/>
        <request index="12" response="00000000000000" foes="00001000111110" cont="0"/>
        <request index="13" response="00000000000000" foes="00001000111110" cont="0"/>
    </junction>
    <junction id="J11" type="dead_end" x="669.73" y="-20.96" incLanes="L11_0 L11_1 L11_2" intLanes="" shape="669.74,-11.36 669.73,-20.96"/>
    <junction id="J12" type="dead_end" x="840.39" y="-99.79" incLanes="" intLanes="" shape="840.39,-99.79 840.39,-109.39"/>
    <junction id="J13" type="traffic_light" x="999.93" y="-99.76" incLanes="L6_0 L6_1 L6_2 -E15_0 -E15_1 -E15_2 L3_0 L3_1 L3_2" intLanes=":J13_0_0 :J13_0_1 :J13_0_2 :J13_14_0 :J13_4_0 :J13_5_0 :J13_5_1 :J13_5_2 :J13_8_0 :J13_9_0 :J13_9_1 :J13_9_2 :J13_12_0 :J13_12_1" shape="990.35,-95.65 1009.55,-95.75 1009.99,-97.97 1010.55,-98.75 1011.33,-99.30 1012.34,-99.63 1013.57,-99.74 1013.59,-109.34 1011.37,-109.79 1010.59,-110.35 1010.04,-111.13 1009.71,-112.13 1009.61,-113.35 990.41,-113.46 989.95,-111.18 989.38,-110.39 988.59,-109.82 987.57,-109.48 986.33,-109.36 986.33,-99.76 988.55,-99.31 989.33,-98.74 989.89,-97.94 990.23,-96.91">
        <request index="0"  response="00000000000000" foes="11111100000000" cont="0"/>
        <request index="1"  response="00000000000000" foes="11111100000000" cont="0"/>
        <request index="2"  response="00000000000000" foes="11111100000000" cont="0"/>
        <request index="3"  response="00000011100000" foes="11111011100000" cont="1"/>
        <request index="4"  response="00000000000000" foes="00111000000000" cont="0"/>
        <request index="5"  response="00000000000000" foes="11111000001000" cont="0"/>
        <request index="6"  response="00000000000000" foes="11111000001000" cont="0"/>
        <request index="7"  response="00000000000000" foes="11111000001000" cont="0"/>
        <request index="8"  response="00000000000111" foes="00000000000111" cont="0"/>
        <request index="9"  response="00000011111111" foes="00000011111111" cont="0"/>
        <request index="10" response="00000011111111" foes="00000011111111" cont="0"/>
        <request index="11" response="00000011111111" foes="00000011111111" cont="0"/>
        <request index="12" response="00000011101111" foes="00000011101111" cont="0"/>
        <request index="13" response="00000011101111" foes="00000011101111" cont="0"/>
    </junction>
    <junction id="J14" type="dead_end" x="1150.64" y="-99.57" incLanes="L12_0 L12_1 L12_2" intLanes="" shape="1150.65,-109.17 1150.64,-99.57"/>
    <junction id="J15" type="dead_end" x="844.67" y="-120.44" incLanes="" intLanes="" shape="844.67,-120.44 844.68,-130.04"/>
    <junction id="J16" type="traffic_light" x="1000.05" y="-120.32" incLanes="L5_0 L5_1 L5_2 L4_0 L4_1 L4_2 E15_0 E15_1 E15_2" intLanes=":J16_0_0 :J16_1_0 :J16_1_1 :J16_1_2 :J16_4_0 :J16_5_0 :J16_5_1 :J16_5_2 :J16_8_0 :J16_8_1 :J16_10_0 :J16_10_1 :J16_10_2 :J16_14_0" shape="1013.65,-120.30 1013.67,-129.90 1011.42,-130.35 1010.64,-130.92 1010.08,-131.71 1009.74,-132.72 1009.62,-133.97 990.42,-133.93 989.98,-131.71 989.43,-130.93 988.65,-130.37 987.65,-130.04 986.43,-129.93 986.42,-120.33 988.66,-119.88 989.44,-119.33 989.99,-118.55 990.32,-117.55 990.43,-116.33 1009.63,-116.22 1010.08,-118.49 1010.64,-119.28 1011.43,-119.85 1012.43,-120.19">
        <request index="0"  response="00000000000000" foes="00000011100000" cont="0"/>
        <request index="1"  response="00000000000000" foes="10001111100000" cont="0"/>
        <request index="2"  response="00000000000000" foes="10001111100000" cont="0"/>
        <request index="3"  response="00000000000000" foes="10001111100000" cont="0"/>
        <request index="4"  response="01110000000000" foes="01110000000000" cont="0"/>
        <request index="5"  response="11110000001111" foes="11110000001111" cont="0"/>
        <request index="6"  response="11110000001111" foes="11110000001111" cont="0"/>