<routes>
    <vType id="pkw" length="5" maxSpeed="50" departSpeed="max" departLane="best" accel="2.6" decel="4.5" sigma="0.2" speedDev="0.2" vClass="passenger"/>
    <vType id="bus" length="15" maxSpeed="30" departSpeed="max" departLane="best" accel="1.2" decel="2.5" sigma="0.1" speedDev="0.1" vClass="bus"/>
    <vType id="bike" length="1.8" width="0.5" maxSpeed="7.5" departSpeed="max" departLane="best" accel="0.8" decel="1.5" sigma="0.5" speedDev="0.5" minGap="0.2" minGapLat="0.3" vClass="bicycle"/>
    <vType id="scooter" length="2" maxSpeed="50" departSpeed="max" departLane="best" accel="2.6" decel="4.5" sigma="0.7" speedDev="0.2" minGap="0.2" minGapLat="0.3" lcCooperative="0.3" lcAssertive="0.8" lcSpeedGain="0.5" tau="1" emissionClass="HBEFA4/MC_4S_le250cc_Euro-4" vClass="moped"/>

<!--Cross inter section  -->
    <flow id="pkw1" type="pkw" from="L2" to="L3" begin="0"  number="0" departPos="0" probability="0.5"/>
    <flow id="bus1" type="bus" from="L2" to="L3" begin="0"  number="0" departPos="0" probability="0.5"/>
    <flow id="bike1" type="bike" from="L2" to="L3" begin="0"  number="20" departPos="0" probability="0.5"/>
    <flow id="scooter1" type="scooter" from="L2" to="L3" begin="0"  number="0" departPos="0" probability="0.5"/>

    

</routes>