<?xml version='1.0' encoding='utf-8'?>
<routes><trip id="scooter_957" type="scooter" depart="0.22" from_="L14" to="E21" /><trip id="pkw_968" type="pkw" depart="0.51" from_="L3" to="L12" /><trip id="scooter_814" type="scooter" depart="2.2" from_="L22" to="E21" /><trip id="bus_435" type="bus" depart="2.41" from_="L9" to="L14" /><trip id="bus_35" type="bus" depart="2.84" from_="L5" to="L3" /><trip id="bus_471" type="bus" depart="3.14" from_="L27" to="L22" /><trip id="bus_219" type="bus" depart="3.43" from_="L26" to="L3" /><trip id="pkw_718" type="pkw" depart="3.59" from_="L41" to="L27" /><trip id="bus_586" type="bus" depart="4.42" from_="L2" to="L9" /><trip id="bike_849" type="bike" depart="4.73" from_="L40" to="L15" /><trip id="scooter_655" type="scooter" depart="5.08" from_="-E7" to="L23" /><trip id="scooter_701" type="scooter" depart="5.3" from_="L12" to="L5" /><trip id="bus_441" type="bus" depart="6.32" from_="L7" to="L20" /><trip id="bus_772" type="bus" depart="6.67" from_="L4" to="L27" /><trip id="bus_977" type="bus" depart="7.21" from_="L27" to="E7" /><trip id="bike_407" type="bike" depart="7.3" from_="L40" to="L23" /><trip id="pkw_684" type="pkw" depart="7.36" from_="L13" to="L11" /><trip id="scooter_981" type="scooter" depart="7.66" from_="E7" to="L24" /><trip id="pkw_736" type="pkw" depart="8.19" from_="E7" to="L10" /><trip id="bike_539" type="bike" depart="8.5" from_="L11" to="L12" /><trip id="pkw_256" type="pkw" depart="8.93" from_="L4" to="L2" /><trip id="scooter_217" type="scooter" depart="9.06" from_="L11" to="L9" /><trip id="pkw_646" type="pkw" depart="9.09" from_="L10" to="L14" /><trip id="pkw_447" type="pkw" depart="9.13" from_="L9" to="L15" /><trip id="scooter_770" type="scooter" depart="9.86" from_="L9" to="L23" /><trip id="bus_185" type="bus" depart="10.13" from_="L27" to="E7" /><trip id="pkw_850" type="pkw" depart="10.53" from_="L23" to="L40" /><trip id="bike_764" type="bike" depart="11.09" from_="L15" to="21" /><trip id="bus_383" type="bus" depart="11.51" from_="L5" to="L13" /><trip id="bus_222" type="bus" depart="11.88" from_="L11" to="E0" /><trip id="scooter_725" type="scooter" depart="11.89" from_="L41" to="E21" /><trip id="scooter_793" type="scooter" depart="12.82" from_="L20" to="L40" /><trip id="pkw_352" type="pkw" depart="13.32" from_="L7" to="E0" /><trip id="scooter_667" type="scooter" depart="14.37" from_="L3" to="E21" /><trip id="pkw_74" type="pkw" depart="14.65" from_="L10" to="L4" /><trip id="bike_599" type="bike" depart="15.29" from_="L14" to="L10" /><trip id="bus_478" type="bus" depart="15.41" from_="L2" to="E0" /><trip id="bike_604" type="bike" depart="15.67" from_="L3" to="L20" /><trip id="pkw_654" type="pkw" depart="15.83" from_="L15" to="L27" /><trip id="bike_456" type="bike" depart="16.12" from_="L12" to="L5" /><trip id="bus_247" type="bus" depart="16.86" from_="L8" to="L27" /><trip id="pkw_477" type="pkw" depart="18.28" from_="L5" to="-E7" /><trip id="bus_156" type="bus" depart="18.31" from_="L24" to="L26" /><trip id="bus_695" type="bus" depart="18.96" from_="L40" to="L2" /><trip id="pkw_765" type="pkw" depart="19.12" from_="L3" to="L11" /><trip id="pkw_943" type="pkw" depart="20.1" from_="L7" to="L1" /><trip id="bike_147" type="bike" depart="20.23" from_="L8" to="L24" /><trip id="bus_375" type="bus" depart="20.55" from_="L14" to="21" /><trip id="bus_902" type="bus" depart="21.43" from_="L7" to="L12" /><trip id="pkw_206" type="pkw" depart="21.56" from_="L3" to="L22" /><trip id="scooter_191" type="scooter" depart="21.91" from_="L5" to="L1" /><trip id="bike_62" type="bike" depart="21.93" from_="L20" to="21" /><trip id="scooter_931" type="scooter" depart="22.06" from_="L40" to="E7" /><trip id="bus_516" type="bus" depart="22.25" from_="L14" to="L26" /><trip id="pkw_362" type="pkw" depart="22.96" from_="L1" to="L7" /><trip id="bus_410" type="bus" depart="23.02" from_="L24" to="E21" /><trip id="bus_816" type="bus" depart="23.28" from_="L12" to="L3" /><trip id="scooter_650" type="scooter" depart="23.7" from_="L8" to="L22" /><trip id="pkw_24" type="pkw" depart="24.06" from_="L22" to="L12" /><trip id="bike_66" type="bike" depart="24.12" from_="L22" to="L1" /><trip id="pkw_603" type="pkw" depart="24.91" from_="L1" to="L2" /><trip id="bus_519" type="bus" depart="25.2" from_="L20" to="L27" /><trip id="bus_768" type="bus" depart="25.29" from_="L4" to="L3" /><trip id="bus_727" type="bus" depart="26.24" from_="L15" to="L10" /><trip id="pkw_294" type="pkw" depart="26.27" from_="L41" to="E21" /><trip id="pkw_722" type="pkw" depart="26.38" from_="L12" to="L27" /><trip id="pkw_73" type="pkw" depart="26.93" from_="L1" to="E7" /><trip id="pkw_792" type="pkw" depart="27.26" from_="-E7" to="L4" /><trip id="bus_982" type="bus" depart="27.4" from_="L4" to="L9" /><trip id="scooter_704" type="scooter" depart="29.98" from_="L27" to="L1" /><trip id="bike_389" type="bike" depart="30.59" from_="L20" to="L40" /><trip id="bus_858" type="bus" depart="31.04" from_="L1" to="L14" /><trip id="bus_678" type="bus" depart="31.12" from_="21" to="L27" /><trip id="pkw_374" type="pkw" depart="31.63" from_="L3" to="L5" /><trip id="pkw_158" type="pkw" depart="32.52" from_="L27" to="L9" /><trip id="pkw_696" type="pkw" depart="33.6" from_="E0" to="L1" /><trip id="pkw_500" type="pkw" depart="34.22" from_="L26" to="L27" /><trip id="pkw_159" type="pkw" depart="34.33" from_="L24" to="L14" /><trip id="bike_143" type="bike" depart="34.86" from_="L11" to="L3" /><trip id="bus_628" type="bus" depart="35.59" from_="L1" to="L23" /><trip id="bike_812" type="bike" depart="36.6" from_="L41" to="L20" /><trip id="pkw_102" type="pkw" depart="36.94" from_="E0" to="-E7" /><trip id="pkw_821" type="pkw" depart="37.28" from_="L11" to="L14" /><trip id="bus_95" type="bus" depart="37.8" from_="L5" to="L1" /><trip id="pkw_334" type="pkw" depart="38.15" from_="L27" to="E0" /><trip id="pkw_268" type="pkw" depart="39.07" from_="L1" to="L20" /><trip id="bike_503" type="bike" depart="40.21" from_="L2" to="L41" /><trip id="pkw_275" type="pkw" depart="40.29" from_="L9" to="L20" /><trip id="pkw_420" type="pkw" depart="41.31" from_="L10" to="L3" /><trip id="pkw_751" type="pkw" depart="41.63" from_="E7" to="L41" /><trip id="scooter_777" type="scooter" depart="41.96" from_="L2" to="L24" /><trip id="pkw_831" type="pkw" depart="42.11" from_="21" to="L3" /><trip id="pkw_343" type="pkw" depart="43.62" from_="L3" to="L7" /><trip id="bus_876" type="bus" depart="43.65" from_="L26" to="L9" /><trip id="bus_149" type="bus" depart="43.77" from_="L2" to="L22" /><trip id="pkw_207" type="pkw" depart="44.75" from_="L26" to="L4" /><trip id="scooter_9" type="scooter" depart="44.91" from_="L41" to="L40" /><trip id="scooter_636" type="scooter" depart="45.21" from_="L7" to="L13" /><trip id="bus_637" type="bus" depart="46.63" from_="L23" to="L20" /><trip id="pkw_165" type="pkw" depart="48.92" from_="L2" to="E7" /><trip id="bus_613" type="bus" depart="49.3" from_="E7" to="L12" /><trip id="bus_708" type="bus" depart="49.51" from_="L4" to="L12" /><trip id="bike_103" type="bike" depart="49.75" from_="E7" to="-E7" /><trip id="pkw_720" type="pkw" depart="50.36" from_="L24" to="L27" /><trip id="scooter_393" type="scooter" depart="50.45" from_="L13" to="L10" /><trip id="pkw_866" type="pkw" depart="50.53" from_="L4" to="L1" /><trip id="bus_60" type="bus" depart="50.58" from_="E7" to="L40" /><trip id="pkw_506" type="pkw" depart="51.22" from_="L41" to="L12" /><trip id="bus_455" type="bus" depart="51.24" from_="L23" to="L41" /><trip id="bus_963" type="bus" depart="53.07" from_="E21" to="L26" /><trip id="pkw_199" type="pkw" depart="53.43" from_="L40" to="E21" /><trip id="scooter_487" type="scooter" depart="53.56" from_="L10" to="L27" /><trip id="pkw_676" type="pkw" depart="54.11" from_="L4" to="L1" /><trip id="pkw_584" type="pkw" depart="54.58" from_="L11" to="L8" /><trip id="pkw_88" type="pkw" depart="55.36" from_="L9" to="E7" /><trip id="pkw_560" type="pkw" depart="55.87" from_="L12" to="L40" /><trip id="pkw_830" type="pkw" depart="55.91" from_="L3" to="L26" /><trip id="scooter_54" type="scooter" depart="56.89" from_="L8" to="L13" /><trip id="pkw_238" type="pkw" depart="57.78" from_="L9" to="21" /><trip id="pkw_728" type="pkw" depart="57.86" from_="E0" to="L26" /><trip id="bus_184" type="bus" depart="58.08" from_="E21" to="L7" /><trip id="bus_183" type="bus" depart="58.52" from_="E21" to="L11" /><trip id="bike_612" type="bike" depart="59.0" from_="L10" to="L14" /><trip id="bike_690" type="bike" depart="59.01" from_="21" to="L4" /><trip id="bus_440" type="bus" depart="59.4" from_="21" to="L13" /><trip id="bus_844" type="bus" depart="60.66" from_="L1" to="L11" /><trip id="bus_390" type="bus" depart="61.27" from_="L27" to="L24" /><trip id="bike_719" type="bike" depart="62.0" from_="L5" to="L1" /><trip id="scooter_862" type="scooter" depart="62.31" from_="L13" to="L26" /><trip id="bike_276" type="bike" depart="63.3" from_="L8" to="L13" /><trip id="bus_693" type="bus" depart="63.92" from_="L15" to="L1" /><trip id="bike_523" type="bike" depart="65.5" from_="E7" to="L26" /><trip id="scooter_878" type="scooter" depart="65.54" from_="L26" to="L27" /><trip id="scooter_897" type="scooter" depart="65.96" from_="L13" to="E0" /><trip id="scooter_141" type="scooter" depart="66.34" from_="L7" to="-E7" /><trip id="pkw_832" type="pkw" depart="67.43" from_="21" to="L22" /><trip id="pkw_72" type="pkw" depart="68.06" from_="L13" to="E21" /><trip id="bus_537" type="bus" depart="68.19" from_="E21" to="L5" /><trip id="pkw_933" type="pkw" depart="68.61" from_="L27" to="L3" /><trip id="bike_476" type="bike" depart="68.62" from_="L14" to="E0" /><trip id="bus_282" type="bus" depart="68.65" from_="L23" to="L2" /><trip id="bus_774" type="bus" depart="70.24" from_="L27" to="-E7" /><trip id="pkw_327" type="pkw" depart="70.28" from_="L26" to="L23" /><trip id="scooter_75" type="scooter" depart="70.42" from_="L3" to="L8" /><trip id="bus_412" type="bus" depart="70.81" from_="-E7" to="L5" /><trip id="bus_169" type="bus" depart="71.02" from_="L12" to="L7" /><trip id="pkw_565" type="pkw" depart="71.56" from_="L26" to="L24" /><trip id="pkw_397" type="pkw" depart="71.74" from_="L13" to="L26" /><trip id="scooter_357" type="scooter" depart="72.17" from_="L1" to="L40" /><trip id="scooter_314" type="scooter" depart="73.01" from_="L15" to="L1" /><trip id="bus_935" type="bus" depart="73.18" from_="L26" to="L15" /><trip id="pkw_121" type="pkw" depart="73.81" from_="L11" to="L13" /><trip id="bike_175" type="bike" depart="73.95" from_="L24" to="L5" /><trip id="pkw_142" type="pkw" depart="74.08" from_="L9" to="L13" /><trip id="pkw_762" type="pkw" depart="75.31" from_="L13" to="L41" /><trip id="bike_522" type="bike" depart="75.49" from_="L22" to="E7" /><trip id="bike_55" type="bike" depart="76.02" from_="L26" to="L10" /><trip id="bus_126" type="bus" depart="76.48" from_="L10" to="L8" /><trip id="bike_713" type="bike" depart="76.96" from_="L10" to="L7" /><trip id="pkw_325" type="pkw" depart="77.21" from_="L5" to="L13" /><trip id="bike_907" type="bike" depart="78.12" from_="L9" to="L4" /><trip id="pkw_245" type="pkw" depart="78.2" from_="-E7" to="L5" /><trip id="pkw_370" type="pkw" depart="78.43" from_="E0" to="L7" /><trip id="bus_32" type="bus" depart="78.97" from_="E21" to="E7" /><trip id="bike_495" type="bike" depart="79.68" from_="-E7" to="L4" /><trip id="pkw_92" type="pkw" depart="79.88" from_="L12" to="L24" /><trip id="bike_417" type="bike" depart="80.97" from_="L12" to="L40" /><trip id="bike_504" type="bike" depart="81.96" from_="L2" to="L20" /><trip id="bike_561" type="bike" depart="82.34" from_="E21" to="L24" /><trip id="pkw_874" type="pkw" depart="83.04" from_="L23" to="L1" /><trip id="bike_356" type="bike" depart="83.57" from_="L22" to="L11" /><trip id="bus_277" type="bus" depart="83.6" from_="-E7" to="L40" /><trip id="bus_27" type="bus" depart="83.85" from_="L4" to="L12" /><trip id="pkw_499" type="pkw" depart="84.2" from_="21" to="L3" /><trip id="scooter_788" type="scooter" depart="84.59" from_="L11" to="L8" /><trip id="bus_828" type="bus" depart="85.09" from_="L7" to="E7" /><trip id="pkw_834" type="pkw" depart="85.1" from_="L2" to="L27" /><trip id="pkw_558" type="pkw" depart="85.6" from_="-E7" to="L2" /><trip id="scooter_896" type="scooter" depart="85.9" from_="L20" to="L3" /><trip id="bus_527" type="bus" depart="86.17" from_="L27" to="L22" /><trip id="scooter_567" type="scooter" depart="87.04" from_="L4" to="21" /><trip id="scooter_679" type="scooter" depart="87.25" from_="L7" to="L11" /><trip id="pkw_459" type="pkw" depart="87.35" from_="L13" to="E21" /><trip id="bike_554" type="bike" depart="87.45" from_="L15" to="L2" /><trip id="scooter_59" type="scooter" depart="88.16" from_="L8" to="21" /><trip id="bus_339" type="bus" depart="88.16" from_="L40" to="-E7" /><trip id="pkw_148" type="pkw" depart="88.24" from_="L13" to="21" /><trip id="pkw_744" type="pkw" depart="89.49" from_="L2" to="L23" /><trip id="bus_203" type="bus" depart="89.91" from_="L20" to="L27" /><trip id="scooter_900" type="scooter" depart="90.15" from_="L20" to="21" /><trip id="scooter_927" type="scooter" depart="90.8" from_="21" to="L41" /><trip id="bike_443" type="bike" depart="91.74" from_="L12" to="-E7" /><trip id="pkw_302" type="pkw" depart="91.81" from_="L7" to="L3" /><trip id="bike_750" type="bike" depart="92.23" from_="L7" to="L11" /><trip id="pkw_445" type="pkw" depart="92.25" from_="L20" to="E21" /><trip id="bus_980" type="bus" depart="92.41" from_="L9" to="L2" /><trip id="scooter_243" type="scooter" depart="92.99" from_="L13" to="L8" /><trip id="scooter_984" type="scooter" depart="93.25" from_="L23" to="L3" /><trip id="bike_31" type="bike" depart="93.26" from_="L20" to="E7" /><trip id="bike_942" type="bike" depart="93.62" from_="L10" to="L13" /><trip id="bus_525" type="bus" depart="93.63" from_="E0" to="21" /><trip id="bus_309" type="bus" depart="94.53" from_="L15" to="L7" /><trip id="bike_856" type="bike" depart="94.74" from_="E0" to="L10" /><trip id="bike_941" type="bike" depart="95.83" from_="L13" to="E21" /><trip id="pkw_286" type="pkw" depart="95.97" from_="L24" to="21" /><trip id="bus_474" type="bus" depart="96.48" from_="E21" to="L15" /><trip id="pkw_864" type="pkw" depart="96.56" from_="L22" to="L5" /><trip id="bus_11" type="bus" depart="96.63" from_="L3" to="21" /><trip id="bus_809" type="bus" depart="96.67" from_="21" to="L2" /><trip id="bus_398" type="bus" depart="97.08" from_="L12" to="L41" /><trip id="pkw_530" type="pkw" depart="97.71" from_="L24" to="L12" /><trip id="scooter_17" type="scooter" depart="97.85" from_="21" to="L41" /><trip id="pkw_797" type="pkw" depart="98.18" from_="L40" to="L27" /><trip id="pkw_341" type="pkw" depart="99.08" from_="L23" to="L1" /><trip id="bus_56" type="bus" depart="99.47" from_="L12" to="L41" /><trip id="pkw_482" type="pkw" depart="99.71" from_="L20" to="L1" /><trip id="pkw_843" type="pkw" depart="99.93" from_="L10" to="L11" /><trip id="scooter_371" type="scooter" depart="100.61" from_="L23" to="E7" /><trip id="pkw_699" type="pkw" depart="101.36" from_="L3" to="L14" /><trip id="pkw_951" type="pkw" depart="102.56" from_="L24" to="L11" /><trip id="scooter_295" type="scooter" depart="102.67" from_="L11" to="-E7" /><trip id="bike_146" type="bike" depart="102.74" from_="L11" to="L13" /><trip id="pkw_232" type="pkw" depart="102.81" from_="L12" to="L9" /><trip id="pkw_893" type="pkw" depart="102.93" from_="E7" to="L20" /><trip id="bike_632" type="bike" depart="103.53" from_="L10" to="L5" /><trip id="pkw_845" type="pkw" depart="104.71" from_="L15" to="L7" /><trip id="bike_202" type="bike" depart="104.74" from_="L7" to="L13" /><trip id="pkw_661" type="pkw" depart="105.4" from_="L26" to="L12" /><trip id="bus_872" type="bus" depart="105.45" from_="L15" to="21" /><trip id="pkw_239" type="pkw" depart="106.37" from_="E21" to="L11" /><trip id="pkw_570" type="pkw" depart="107.3" from_="L7" to="L40" /><trip id="scooter_212" type="scooter" depart="107.86" from_="L3" to="L1" /><trip id="bus_730" type="bus" depart="107.89" from_="L12" to="L7" /><trip id="scooter_848" type="scooter" depart="108.05" from_="L11" to="L12" /><trip id="bus_767" type="bus" depart="108.53" from_="L23" to="L7" /><trip id="bus_402" type="bus" depart="108.86" from_="L9" to="L15" /><trip id="bike_783" type="bike" depart="108.99" from_="L2" to="L23" /><trip id="scooter_285" type="scooter" depart="109.11" from_="L12" to="L5" /><trip id="pkw_391" type="pkw" depart="109.51" from_="E7" to="L41" /><trip id="scooter_513" type="scooter" depart="109.53" from_="L8" to="E7" /><trip id="bus_112" type="bus" depart="109.64" from_="L24" to="L20" /><trip id="scooter_145" type="scooter" depart="109.81" from_="L7" to="L41" /><trip id="pkw_508" type="pkw" depart="110.57" from_="21" to="L40" /><trip id="pkw_160" type="pkw" depart="110.95" from_="L20" to="L5" /><trip id="pkw_69" type="pkw" depart="112.25" from_="L11" to="L40" /><trip id="scooter_270" type="scooter" depart="112.33" from_="L15" to="L40" /><trip id="bike_132" type="bike" depart="112.34" from_="-E7" to="L41" /><trip id="scooter_133" type="scooter" depart="113.96" from_="E0" to="L14" /><trip id="bike_12" type="bike" depart="114.12" from_="L23" to="L5" /><trip id="bike_790" type="bike" depart="114.9" from_="L14" to="-E7" /><trip id="bus_409" type="bus" depart="115.35" from_="L24" to="L8" /><trip id="pkw_623" type="pkw" depart="115.87" from_="L24" to="L26" /><trip id="bus_187" type="bus" depart="116.49" from_="L12" to="E21" /><trip id="bus_234" type="bus" depart="117.39" from_="E21" to="L15" /><trip id="bus_663" type="bus" depart="117.7" from_="L4" to="L12" /><trip id="scooter_673" type="scooter" depart="117.95" from_="L20" to="L4" /><trip id="bus_633" type="bus" depart="118.11" from_="L20" to="L15" /><trip id="bus_651" type="bus" depart="118.92" from_="L7" to="L22" /><trip id="pkw_510" type="pkw" depart="118.97" from_="L40" to="L4" /><trip id="bus_109" type="bus" depart="120.42" from_="L41" to="L10" /><trip id="bus_801" type="bus" depart="120.45" from_="L20" to="L10" /><trip id="pkw_839" type="pkw" depart="120.78" from_="L9" to="21" /><trip id="pkw_972" type="pkw" depart="122.03" from_="L26" to="L12" /><trip id="scooter_588" type="scooter" depart="123.64" from_="L11" to="E0" /><trip id="pkw_8" type="pkw" depart="123.77" from_="E0" to="L1" /><trip id="scooter_257" type="scooter" depart="124.4" from_="L5" to="L27" /><trip id="scooter_881" type="scooter" depart="126.6" from_="L9" to="L26" /><trip id="pkw_677" type="pkw" depart="126.79" from_="21" to="L20" /><trip id="bike_378" type="bike" depart="127.15" from_="L20" to="L27" /><trip id="pkw_171" type="pkw" depart="127.21" from_="L9" to="L1" /><trip id="bus_517" type="bus" depart="127.41" from_="L23" to="-E7" /><trip id="bus_649" type="bus" depart="127.78" from_="L12" to="L2" /><trip id="bike_827" type="bike" depart="128.58" from_="L7" to="L10" /><trip id="pkw_811" type="pkw" depart="128.72" from_="L1" to="L11" /><trip id="bike_167" type="bike" depart="129.56" from_="E7" to="L22" /><trip id="bike_432" type="bike" depart="130.32" from_="L12" to="E7" /><trip id="scooter_544" type="scooter" depart="130.42" from_="L10" to="L14" /><trip id="bus_890" type="bus" depart="130.56" from_="L15" to="L41" /><trip id="bus_161" type="bus" depart="131.01" from_="L4" to="L12" /><trip id="bus_324" type="bus" depart="132.03" from_="L7" to="L24" /><trip id="bike_433" type="bike" depart="133.59" from_="L3" to="L40" /><trip id="pkw_870" type="pkw" depart="134.04" from_="L14" to="E0" /><trip id="bike_545" type="bike" depart="134.29" from_="L4" to="L15" /><trip id="bus_405" type="bus" depart="134.34" from_="L2" to="L27" /><trip id="bus_129" type="bus" depart="134.56" from_="L27" to="L14" /><trip id="pkw_223" type="pkw" depart="134.59" from_="L24" to="L27" /><trip id="scooter_395" type="scooter" depart="134.89" from_="L9" to="21" /><trip id="bike_300" type="bike" depart="136.46" from_="L20" to="L24" /><trip id="bike_582" type="bike" depart="137.3" from_="L4" to="L40" /><trip id="pkw_2" type="pkw" depart="137.34" from_="L22" to="L2" /><trip id="scooter_625" type="scooter" depart="137.49" from_="L15" to="L10" /><trip id="pkw_365" type="pkw" depart="137.71" from_="L10" to="L14" /><trip id="pkw_267" type="pkw" depart="137.78" from_="L3" to="E7" /><trip id="bus_529" type="bus" depart="139.38" from_="L15" to="L12" /><trip id="pkw_836" type="pkw" depart="142.0" from_="E21" to="L23" /><trip id="pkw_465" type="pkw" depart="142.28" from_="L2" to="L4" /><trip id="bus_954" type="bus" depart="143.35" from_="L13" to="L2" /><trip id="pkw_221" type="pkw" depart="143.52" from_="-E7" to="L23" /><trip id="pkw_724" type="pkw" depart="144.17" from_="L40" to="L5" /><trip id="pkw_188" type="pkw" depart="144.31" from_="L13" to="E7" /><trip id="bike_287" type="bike" depart="145.26" from_="L13" to="L3" /><trip id="pkw_934" type="pkw" depart="146.28" from_="L20" to="L23" /><trip id="bus_491" type="bus" depart="146.95" from_="E0" to="L9" /><trip id="bike_576" type="bike" depart="147.14" from_="L41" to="-E7" /><trip id="bus_668" type="bus" depart="147.16" from_="L2" to="L4" /><trip id="pkw_450" type="pkw" depart="147.84" from_="-E7" to="L20" /><trip id="scooter_70" type="scooter" depart="147.86" from_="21" to="E21" /><trip id="pkw_662" type="pkw" depart="148.31" from_="E0" to="L3" /><trip id="scooter_372" type="scooter" depart="148.94" from_="E21" to="L23" /><trip id="bus_732" type="bus" depart="149.46" from_="L14" to="L2" /><trip id="bike_322" type="bike" depart="150.66" from_="L15" to="E21" /><trip id="bus_157" type="bus" depart="152.03" from_="L11" to="L7" /><trip id="bike_10" type="bike" depart="152.28" from_="L2" to="L26" /><trip id="bus_178" type="bus" depart="152.49" from_="L24" to="E7" /><trip id="bus_595" type="bus" depart="152.62" from_="L23" to="E21" /><trip id="bus_611" type="bus" depart="152.94" from_="L27" to="L8" /><trip id="bus_479" type="bus" depart="153.35" from_="L41" to="L22" /><trip id="bike_354" type="bike" depart="153.57" from_="L12" to="21" /><trip id="bus_386" type="bus" depart="155.25" from_="L23" to="L14" /><trip id="pkw_473" type="pkw" depart="155.47" from_="-E7" to="E21" /><trip id="bike_250" type="bike" depart="155.89" from_="L27" to="L23" /><trip id="bus_883" type="bus" depart="156.8" from_="L40" to="E21" /><trip id="bike_453" type="bike" depart="157.68" from_="L4" to="E0" /><trip id="scooter_462" type="scooter" depart="158.93" from_="L13" to="L2" /><trip id="scooter_436" type="scooter" depart="158.97" from_="L20" to="L22" /><trip id="bike_97" type="bike" depart="159.57" from_="L4" to="L12" /><trip id="pkw_937" type="pkw" depart="159.96" from_="L22" to="L7" /><trip id="pkw_528" type="pkw" depart="160.8" from_="-E7" to="L1" /><trip id="pkw_26" type="pkw" depart="161.69" from_="L10" to="L2" /><trip id="scooter_345" type="scooter" depart="162.09" from_="L12" to="E7" /><trip id="bus_0" type="bus" depart="162.82" from_="L3" to="-E7" /><trip id="bus_21" type="bus" depart="164.16" from_="L41" to="-E7" /><trip id="bus_312" type="bus" depart="165.28" from_="L13" to="L40" /><trip id="pkw_449" type="pkw" depart="165.31" from_="L11" to="L26" /><trip id="bike_101" type="bike" depart="166.35" from_="L7" to="E21" /><trip id="pkw_304" type="pkw" depart="167.08" from_="L8" to="L12" /><trip id="bus_884" type="bus" depart="167.94" from_="L41" to="L3" /><trip id="pkw_838" type="pkw" depart="168.27" from_="E7" to="L15" /><trip id="bike_620" type="bike" depart="168.61" from_="L3" to="L14" /><trip id="pkw_296" type="pkw" depart="168.71" from_="L14" to="L15" /><trip id="bus_306" type="bus" depart="168.97" from_="L5" to="L12" /><trip id="bus_498" type="bus" depart="169.32" from_="L15" to="L13" /><trip id="bus_130" type="bus" depart="169.59" from_="L20" to="L14" /><trip id="bike_388" type="bike" depart="169.66" from_="L13" to="L1" /><trip id="pkw_710" type="pkw" depart="170.88" from_="L9" to="L2" /><trip id="bus_978" type="bus" depart="171.1" from_="L26" to="E7" /><trip id="pkw_51" type="pkw" depart="172.16" from_="L23" to="-E7" /><trip id="bike_78" type="bike" depart="172.48" from_="L3" to="L1" /><trip id="bus_726" type="bus" depart="173.87" from_="L10" to="L12" /><trip id="scooter_323" type="scooter" depart="174.58" from_="21" to="L10" /><trip id="bike_853" type="bike" depart="174.88" from_="L23" to="L3" /><trip id="pkw_647" type="pkw" depart="175.42" from_="L41" to="L2" /><trip id="scooter_197" type="scooter" depart="176.17" from_="L1" to="L26" /><trip id="pkw_939" type="pkw" depart="176.55" from_="L26" to="L41" /><trip id="pkw_45" type="pkw" depart="177.05" from_="L7" to="L23" /><trip id="bus_380" type="bus" depart="177.17" from_="E0" to="L1" /><trip id="bus_974" type="bus" depart="177.34" from_="L3" to="L10" /><trip id="bike_971" type="bike" depart="177.36" from_="L8" to="L13" /><trip id="bus_23" type="bus" depart="178.04" from_="E7" to="L4" /><trip id="pkw_261" type="pkw" depart="178.31" from_="L12" to="L27" /><trip id="pkw_162" type="pkw" depart="178.58" from_="L12" to="L26" /><trip id="scooter_37" type="scooter" depart="178.77" from_="L14" to="E0" /><trip id="scooter_452" type="scooter" depart="179.6" from_="L10" to="L4" /><trip id="bike_319" type="bike" depart="179.89" from_="L26" to="L9" /><trip id="scooter_379" type="scooter" depart="180.09" from_="L4" to="L9" /><trip id="scooter_626" type="scooter" depart="180.58" from_="L9" to="L23" /><trip id="pkw_484" type="pkw" depart="181.02" from_="L14" to="L27" /><trip id="pkw_914" type="pkw" depart="181.31" from_="L3" to="L14" /><trip id="bus_428" type="bus" depart="181.34" from_="L4" to="L41" /><trip id="bus_707" type="bus" depart="181.45" from_="L12" to="L20" /><trip id="pkw_454" type="pkw" depart="183.46" from_="L27" to="L7" /><trip id="bus_105" type="bus" depart="184.36" from_="L20" to="L41" /><trip id="scooter_867" type="scooter" depart="185.17" from_="L13" to="L5" /><trip id="pkw_606" type="pkw" depart="185.66" from_="L40" to="E0" /><trip id="pkw_422" type="pkw" depart="186.03" from_="L10" to="E7" /><trip id="bike_213" type="bike" depart="186.36" from_="21" to="E7" /><trip id="bike_756" type="bike" depart="186.79" from_="21" to="L20" /><trip id="bike_700" type="bike" depart="187.41" from_="L7" to="L4" /><trip id="pkw_526" type="pkw" depart="187.65" from_="L13" to="L8" /><trip id="pkw_589" type="pkw" depart="187.75" from_="L5" to="L23" /><trip id="bus_230" type="bus" depart="187.79" from_="L3" to="L20" /><trip id="bus_688" type="bus" depart="187.87" from_="L26" to="21" /><trip id="bus_805" type="bus" depart="188.57" from_="L12" to="E7" /><trip id="pkw_807" type="pkw" depart="188.71" from_="L5" to="21" /><trip id="bus_204" type="bus" depart="189.04" from_="E7" to="L41" /><trip id="bike_361" type="bike" depart="189.13" from_="-E7" to="E21" /><trip id="bike_216" type="bike" depart="190.02" from_="L41" to="L22" /><trip id="bus_174" type="bus" depart="190.07" from_="L12" to="L23" /><trip id="scooter_671" type="scooter" depart="190.84" from_="E0" to="L20" /><trip id="pkw_925" type="pkw" depart="192.15" from_="L24" to="L8" /><trip id="bike_674" type="bike" depart="193.65" from_="L11" to="L40" /><trip id="bus_860" type="bus" depart="194.06" from_="-E7" to="L12" /><trip id="bus_618" type="bus" depart="194.21" from_="L27" to="L4" /><trip id="bus_264" type="bus" depart="194.44" from_="L2" to="L27" /><trip id="bike_170" type="bike" depart="195.18" from_="L1" to="L10" /><trip id="scooter_675" type="scooter" depart="195.54" from_="L23" to="E21" /><trip id="scooter_106" type="scooter" depart="195.86" from_="E0" to="E7" /><trip id="pkw_193" type="pkw" depart="195.89" from_="L7" to="L4" /><trip id="bike_552" type="bike" depart="196.81" from_="L15" to="L22" /><trip id="pkw_763" type="pkw" depart="196.86" from_="L13" to="L14" /><trip id="bus_367" type="bus" depart="197.54" from_="L20" to="L12" /><trip id="scooter_381" type="scooter" depart="197.89" from_="L41" to="L1" /><trip id="bus_278" type="bus" depart="198.11" from_="L8" to="L5" /><trip id="bike_376" type="bike" depart="198.16" from_="L24" to="L8" /><trip id="bus_691" type="bus" depart="198.5" from_="21" to="L26" /><trip id="scooter_953" type="scooter" depart="200.3" from_="L15" to="L11" /><trip id="bus_746" type="bus" depart="200.95" from_="L9" to="L24" /><trip id="pkw_643" type="pkw" depart="201.0" from_="L11" to="E0" /><trip id="bus_682" type="bus" depart="202.25" from_="L7" to="L41" /><trip id="pkw_152" type="pkw" depart="202.42" from_="L4" to="L24" /><trip id="bike_210" type="bike" depart="202.57" from_="L26" to="L15" /><trip id="bike_290" type="bike" depart="202.77" from_="L11" to="E0" /><trip id="bus_543" type="bus" depart="203.6" from_="E7" to="L14" /><trip id="scooter_622" type="scooter" depart="203.82" from_="L14" to="L23" /><trip id="bike_621" type="bike" depart="204.37" from_="E21" to="L5" /><trip id="pkw_990" type="pkw" depart="204.58" from_="L40" to="L20" /><trip id="bus_547" type="bus" depart="204.66" from_="L13" to="21" /><trip id="pkw_743" type="pkw" depart="205.16" from_="L20" to="L4" /><trip id="pkw_137" type="pkw" depart="205.48" from_="L40" to="L27" /><trip id="bus_209" type="bus" depart="205.93" from_="L27" to="E21" /><trip id="bus_531" type="bus" depart="206.0" from_="L24" to="L14" /><trip id="pkw_956" type="pkw" depart="206.0" from_="L23" to="-E7" /><trip id="scooter_823" type="scooter" depart="206.01" from_="L26" to="L27" /><trip id="pkw_773" type="pkw" depart="206.21" from_="L5" to="L24" /><trip id="pkw_546" type="pkw" depart="206.27" from_="L24" to="L9" /><trip id="bus_90" type="bus" depart="206.58" from_="L7" to="L13" /><trip id="bus_258" type="bus" depart="206.96" from_="E7" to="L13" /><trip id="scooter_920" type="scooter" depart="207.25" from_="L40" to="E7" /><trip id="bike_521" type="bike" depart="209.92" from_="E0" to="L27" /><trip id="pkw_262" type="pkw" depart="210.23" from_="L26" to="21" /><trip id="scooter_118" type="scooter" depart="210.5" from_="L11" to="L40" /><trip id="bike_787" type="bike" depart="210.53" from_="L20" to="L5" /><trip id="bike_749" type="bike" depart="210.7" from_="L1" to=