<?xml version='1.0' encoding='utf-8'?>
<routes><trip id="pkw_827" type="pkw" depart="0.3" from_="L27" to="E21" /><trip id="pkw_441" type="pkw" depart="1.1" from_="L5" to="L13" /><trip id="pkw_596" type="pkw" depart="1.31" from_="L15" to="L1" /><trip id="scooter_327" type="scooter" depart="2.17" from_="L12" to="L7" /><trip id="bus_471" type="bus" depart="2.83" from_="L5" to="L13" /><trip id="pkw_80" type="pkw" depart="3.58" from_="L26" to="L27" /><trip id="pkw_766" type="pkw" depart="4.84" from_="L1" to="L5" /><trip id="pkw_875" type="pkw" depart="5.3" from_="L10" to="E7" /><trip id="pkw_343" type="pkw" depart="5.57" from_="L41" to="L12" /><trip id="pkw_161" type="pkw" depart="7.38" from_="L13" to="L15" /><trip id="bus_775" type="bus" depart="7.43" from_="L13" to="L11" /><trip id="bus_519" type="bus" depart="8.45" from_="L13" to="L7" /><trip id="pkw_501" type="pkw" depart="9.22" from_="L26" to="L12" /><trip id="pkw_439" type="pkw" depart="9.35" from_="L27" to="L4" /><trip id="pkw_561" type="pkw" depart="9.46" from_="L1" to="E7" /><trip id="pkw_294" type="pkw" depart="10.45" from_="L7" to="L27" /><trip id="pkw_18" type="pkw" depart="10.7" from_="L14" to="L24" /><trip id="bus_379" type="bus" depart="11.12" from_="E21" to="L15" /><trip id="pkw_944" type="pkw" depart="12.58" from_="L2" to="L8" /><trip id="pkw_147" type="pkw" depart="12.6" from_="L24" to="E0" /><trip id="pkw_298" type="pkw" depart="12.98" from_="L23" to="L4" /><trip id="pkw_841" type="pkw" depart="13.51" from_="L1" to="L40" /><trip id="bus_725" type="bus" depart="13.68" from_="L7" to="L23" /><trip id="pkw_821" type="pkw" depart="13.95" from_="L12" to="L13" /><trip id="bus_719" type="bus" depart="14.31" from_="L20" to="L24" /><trip id="pkw_387" type="pkw" depart="14.35" from_="L26" to="L40" /><trip id="bus_648" type="bus" depart="14.84" from_="L7" to="E0" /><trip id="bike_54" type="bike" depart="15.07" from_="L3" to="L13" /><trip id="pkw_521" type="pkw" depart="15.22" from_="L13" to="E7" /><trip id="pkw_731" type="pkw" depart="15.34" from_="L23" to="L1" /><trip id="bus_117" type="bus" depart="15.92" from_="L12" to="L11" /><trip id="pkw_190" type="pkw" depart="16.82" from_="L2" to="L26" /><trip id="pkw_0" type="pkw" depart="17.84" from_="L12" to="L23" /><trip id="bike_607" type="bike" depart="18.1" from_="L40" to="L15" /><trip id="pkw_148" type="pkw" depart="18.2" from_="L11" to="L10" /><trip id="pkw_635" type="pkw" depart="20.06" from_="L4" to="L7" /><trip id="pkw_59" type="pkw" depart="20.76" from_="L15" to="L3" /><trip id="bus_800" type="bus" depart="21.78" from_="L11" to="L1" /><trip id="bus_455" type="bus" depart="22.43" from_="L4" to="L14" /><trip id="pkw_780" type="pkw" depart="24.03" from_="L20" to="L12" /><trip id="pkw_276" type="pkw" depart="24.26" from_="L13" to="L4" /><trip id="pkw_443" type="pkw" depart="25.46" from_="L27" to="L15" /><trip id="pkw_689" type="pkw" depart="25.71" from_="L10" to="L1" /><trip id="pkw_36" type="pkw" depart="26.34" from_="L13" to="L2" /><trip id="pkw_660" type="pkw" depart="26.68" from_="L24" to="L11" /><trip id="bus_956" type="bus" depart="26.85" from_="L27" to="E7" /><trip id="bus_776" type="bus" depart="27.49" from_="21" to="L2" /><trip id="bus_992" type="bus" depart="27.55" from_="21" to="E7" /><trip id="bus_502" type="bus" depart="27.61" from_="L11" to="L12" /><trip id="pkw_180" type="pkw" depart="27.8" from_="L13" to="L10" /><trip id="bus_428" type="bus" depart="27.81" from_="L3" to="L1" /><trip id="bus_285" type="bus" depart="27.88" from_="L15" to="L2" /><trip id="bus_96" type="bus" depart="28.45" from_="L13" to="L9" /><trip id="bus_370" type="bus" depart="28.76" from_="L24" to="E7" /><trip id="pkw_420" type="pkw" depart="28.94" from_="L22" to="L12" /><trip id="bus_99" type="bus" depart="29.32" from_="E0" to="L20" /><trip id="bus_881" type="bus" depart="29.63" from_="L9" to="L5" /><trip id="pkw_560" type="pkw" depart="30.28" from_="L27" to="L22" /><trip id="pkw_15" type="pkw" depart="30.63" from_="L9" to="L22" /><trip id="bus_6" type="bus" depart="31.4" from_="L7" to="-E7" /><trip id="pkw_21" type="pkw" depart="31.93" from_="L40" to="L9" /><trip id="pkw_403" type="pkw" depart="34.57" from_="L14" to="-E7" /><trip id="pkw_482" type="pkw" depart="34.74" from_="L20" to="L4" /><trip id="bus_571" type="bus" depart="36.28" from_="L1" to="L4" /><trip id="pkw_310" type="pkw" depart="37.69" from_="L2" to="E21" /><trip id="pkw_179" type="pkw" depart="38.32" from_="L40" to="L11" /><trip id="bus_931" type="bus" depart="39.36" from_="L24" to="L40" /><trip id="bus_483" type="bus" depart="39.52" from_="L41" to="L9" /><trip id="bike_253" type="bike" depart="39.53" from_="L11" to="L14" /><trip id="bus_763" type="bus" depart="39.78" from_="L14" to="L8" /><trip id="pkw_366" type="pkw" depart="40.07" from_="L10" to="L7" /><trip id="bus_594" type="bus" depart="40.09" from_="L13" to="L7" /><trip id="pkw_706" type="pkw" depart="40.23" from_="L1" to="L8" /><trip id="bus_324" type="bus" depart="40.63" from_="L22" to="L2" /><trip id="pkw_226" type="pkw" depart="40.84" from_="L5" to="L26" /><trip id="scooter_386" type="scooter" depart="41.81" from_="L24" to="L23" /><trip id="pkw_591" type="pkw" depart="42.63" from_="L41" to="E0" /><trip id="pkw_923" type="pkw" depart="42.67" from_="L3" to="L24" /><trip id="bus_465" type="bus" depart="43.49" from_="L11" to="L22" /><trip id="bus_308" type="bus" depart="43.51" from_="L40" to="E0" /><trip id="pkw_297" type="pkw" depart="44.31" from_="L13" to="21" /><trip id="bus_247" type="bus" depart="45.49" from_="E7" to="L1" /><trip id="bike_943" type="bike" depart="45.92" from_="L11" to="L2" /><trip id="pkw_329" type="pkw" depart="48.27" from_="L40" to="E21" /><trip id="pkw_625" type="pkw" depart="48.76" from_="L9" to="L26" /><trip id="bus_980" type="bus" depart="48.85" from_="L5" to="L1" /><trip id="bus_951" type="bus" depart="50.17" from_="L40" to="L4" /><trip id="bike_87" type="bike" depart="50.44" from_="L15" to="L8" /><trip id="pkw_983" type="pkw" depart="50.54" from_="L20" to="L1" /><trip id="pkw_417" type="pkw" depart="52.83" from_="L26" to="L12" /><trip id="pkw_629" type="pkw" depart="55.92" from_="E0" to="L26" /><trip id="pkw_533" type="pkw" depart="56.19" from_="L40" to="L13" /><trip id="pkw_649" type="pkw" depart="56.73" from_="L15" to="L27" /><trip id="pkw_430" type="pkw" depart="56.97" from_="-E7" to="L12" /><trip id="pkw_219" type="pkw" depart="57.98" from_="L40" to="21" /><trip id="pkw_865" type="pkw" depart="59.06" from_="E21" to="L1" /><trip id="bus_162" type="bus" depart="59.77" from_="L20" to="E7" /><trip id="bus_574" type="bus" depart="60.13" from_="21" to="L12" /><trip id="bus_661" type="bus" depart="60.88" from_="L22" to="L40" /><trip id="pkw_44" type="pkw" depart="60.89" from_="E21" to="L26" /><trip id="bus_265" type="bus" depart="61.57" from_="L27" to="L20" /><trip id="pkw_820" type="pkw" depart="61.59" from_="-E7" to="L40" /><trip id="bus_143" type="bus" depart="61.73" from_="L27" to="E0" /><trip id="bus_896" type="bus" depart="61.79" from_="L5" to="L1" /><trip id="pkw_404" type="pkw" depart="63.87" from_="L1" to="L22" /><trip id="bus_106" type="bus" depart="64.28" from_="L27" to="L7" /><trip id="bus_469" type="bus" depart="64.32" from_="L40" to="L8" /><trip id="pkw_350" type="pkw" depart="64.34" from_="L5" to="L3" /><trip id="pkw_609" type="pkw" depart="65.35" from_="L12" to="L24" /><trip id="pkw_804" type="pkw" depart="65.83" from_="L23" to="L24" /><trip id="pkw_572" type="pkw" depart="67.4" from_="L15" to="L1" /><trip id="bus_538" type="bus" depart="67.65" from_="E21" to="L23" /><trip id="bus_212" type="bus" depart="68.59" from_="L14" to="-E7" /><trip id="pkw_431" type="pkw" depart="68.84" from_="L22" to="L27" /><trip id="pkw_263" type="pkw" depart="68.99" from_="L40" to="L13" /><trip id="pkw_958" type="pkw" depart="70.1" from_="L3" to="L10" /><trip id="pkw_587" type="pkw" depart="70.14" from_="L27" to="L5" /><trip id="pkw_248" type="pkw" depart="70.22" from_="E7" to="-E7" /><trip id="pkw_260" type="pkw" depart="70.34" from_="E21" to="L9" /><trip id="bus_237" type="bus" depart="72.09" from_="E21" to="L23" /><trip id="pkw_759" type="pkw" depart="72.32" from_="L12" to="L10" /><trip id="pkw_899" type="pkw" depart="72.35" from_="L2" to="E0" /><trip id="bus_342" type="bus" depart="72.52" from_="-E7" to="L20" /><trip id="pkw_11" type="pkw" depart="73.14" from_="L13" to="L15" /><trip id="bus_400" type="bus" depart="73.72" from_="L5" to="L4" /><trip id="pkw_659" type="pkw" depart="74.35" from_="L40" to="L41" /><trip id="bus_679" type="bus" depart="74.44" from_="L41" to="L2" /><trip id="bus_315" type="bus" depart="74.48" from_="L10" to="L13" /><trip id="bus_809" type="bus" depart="74.77" from_="L20" to="L14" /><trip id="bus_34" type="bus" depart="74.83" from_="L2" to="-E7" /><trip id="pkw_727" type="pkw" depart="74.88" from_="-E7" to="L12" /><trip id="bus_667" type="bus" depart="75.14" from_="E0" to="L8" /><trip id="bus_496" type="bus" depart="75.19" from_="L2" to="L23" /><trip id="bus_893" type="bus" depart="77.11" from_="L41" to="L8" /><trip id="bike_478" type="bike" depart="77.23" from_="L15" to="L41" /><trip id="pkw_474" type="pkw" depart="77.42" from_="L27" to="L9" /><trip id="pkw_769" type="pkw" depart="79.19" from_="21" to="L13" /><trip id="pkw_858" type="pkw" depart="79.75" from_="L2" to="L26" /><trip id="pkw_600" type="pkw" depart="80.3" from_="21" to="-E7" /><trip id="pkw_748" type="pkw" depart="80.7" from_="L41" to="E0" /><trip id="pkw_586" type="pkw" depart="81.36" from_="L10" to="L3" /><trip id="bus_752" type="bus" depart="81.38" from_="L15" to="E0" /><trip id="bus_291" type="bus" depart="82.57" from_="L15" to="L3" /><trip id="bus_98" type="bus" depart="82.99" from_="L11" to="L27" /><trip id="pkw_603" type="pkw" depart="83.26" from_="L1" to="L24" /><trip id="pkw_115" type="pkw" depart="84.21" from_="L1" to="L22" /><trip id="bus_414" type="bus" depart="85.14" from_="L7" to="L9" /><trip id="bus_129" type="bus" depart="85.35" from_="L7" to="L9" /><trip id="pkw_407" type="pkw" depart="86.13" from_="L2" to="L20" /><trip id="bus_933" type="bus" depart="86.16" from_="L4" to="L2" /><trip id="pkw_360" type="pkw" depart="86.55" from_="L5" to="L14" /><trip id="pkw_230" type="pkw" depart="86.68" from_="E0" to="L12" /><trip id="pkw_8" type="pkw" depart="86.71" from_="L22" to="L1" /><trip id="bike_119" type="bike" depart="88.9" from_="L15" to="L2" /><trip id="bus_142" type="bus" depart="89.5" from_="L12" to="L24" /><trip id="bus_485" type="bus" depart="89.57" from_="L27" to="E0" /><trip id="pkw_859" type="pkw" depart="89.7" from_="L10" to="L26" /><trip id="bus_316" type="bus" depart="90.37" from_="L2" to="L12" /><trip id="bus_636" type="bus" depart="90.75" from_="L4" to="L9" /><trip id="pkw_670" type="pkw" depart="91.01" from_="L7" to="L26" /><trip id="bus_5" type="bus" depart="91.67" from_="E0" to="E7" /><trip id="pkw_556" type="pkw" depart="92.38" from_="L4" to="L7" /><trip id="pkw_79" type="pkw" depart="92.61" from_="E21" to="L24" /><trip id="pkw_189" type="pkw" depart="92.64" from_="L1" to="L9" /><trip id="bus_477" type="bus" depart="93.61" from_="L13" to="L2" /><trip id="bus_50" type="bus" depart="93.99" from_="L26" to="L10" /><trip id="pkw_892" type="pkw" depart="94.35" from_="L5" to="L14" /><trip id="bus_598" type="bus" depart="94.81" from_="L7" to="L15" /><trip id="bus_488" type="bus" depart="95.5" from_="E7" to="-E7" /><trip id="pkw_998" type="pkw" depart="95.66" from_="E0" to="21" /><trip id="pkw_938" type="pkw" depart="96.2" from_="L4" to="L23" /><trip id="bus_337" type="bus" depart="96.41" from_="L1" to="L8" /><trip id="bus_934" type="bus" depart="96.76" from_="L20" to="L24" /><trip id="pkw_413" type="pkw" depart="96.81" from_="L12" to="L11" /><trip id="bike_773" type="bike" depart="96.94" from_="L4" to="L2" /><trip id="pkw_444" type="pkw" depart="97.05" from_="L1" to="L12" /><trip id="scooter_416" type="scooter" depart="97.41" from_="L8" to="L20" /><trip id="pkw_729" type="pkw" depart="97.44" from_="L13" to="L26" /><trip id="pkw_334" type="pkw" depart="98.57" from_="L20" to="-E7" /><trip id="bike_506" type="bike" depart="98.61" from_="L26" to="L41" /><trip id="bus_682" type="bus" depart="98.76" from_="E7" to="L4" /><trip id="bus_51" type="bus" depart="99.03" from_="L10" to="L2" /><trip id="pkw_557" type="pkw" depart="99.21" from_="L15" to="L40" /><trip id="pkw_393" type="pkw" depart="100.37" from_="L11" to="L5" /><trip id="scooter_806" type="scooter" depart="102.4" from_="L7" to="L22" /><trip id="pkw_30" type="pkw" depart="103.44" from_="L5" to="L23" /><trip id="pkw_599" type="pkw" depart="104.82" from_="L14" to="L8" /><trip id="bus_555" type="bus" depart="104.95" from_="L3" to="L14" /><trip id="pkw_78" type="pkw" depart="105.0" from_="L27" to="L11" /><trip id="bus_222" type="bus" depart="105.86" from_="L27" to="L4" /><trip id="pkw_663" type="pkw" depart="106.77" from_="L3" to="L4" /><trip id="bus_726" type="bus" depart="107.46" from_="L7" to="L11" /><trip id="pkw_192" type="pkw" depart="108.0" from_="L26" to="L5" /><trip id="pkw_518" type="pkw" depart="108.74" from_="L14" to="L10" /><trip id="bus_433" type="bus" depart="109.63" from_="L13" to="L41" /><trip id="bike_765" type="bike" depart="109.69" from_="L20" to="L27" /><trip id="bus_715" type="bus" depart="110.46" from_="E7" to="L2" /><trip id="pkw_736" type="pkw" depart="110.51" from_="L1" to="L15" /><trip id="pkw_303" type="pkw" depart="112.78" from_="L4" to="-E7" /><trip id="bus_650" type="bus" depart="114.44" from_="L41" to="L22" /><trip id="pkw_497" type="pkw" depart="114.71" from_="21" to="L4" /><trip id="pkw_13" type="pkw" depart="115.32" from_="L1" to="L41" /><trip id="pkw_348" type="pkw" depart="115.35" from_="L14" to="E0" /><trip id="bus_447" type="bus" depart="115.94" from_="L24" to="-E7" /><trip id="bus_513" type="bus" depart="116.56" from_="L20" to="E21" /><trip id="bus_511" type="bus" depart="117.54" from_="L7" to="L23" /><trip id="pkw_82" type="pkw" depart="117.56" from_="L27" to="L1" /><trip id="pkw_688" type="pkw" depart="117.56" from_="L22" to="L24" /><trip id="pkw_227" type="pkw" depart="117.66" from_="L12" to="L10" /><trip id="pkw_62" type="pkw" depart="117.84" from_="L11" to="L13" /><trip id="bike_657" type="bike" depart="118.08" from_="L10" to="L24" /><trip id="bike_85" type="bike" depart="118.71" from_="L10" to="L13" /><trip id="bus_481" type="bus" depart="119.02" from_="-E7" to="L1" /><trip id="bus_472" type="bus" depart="119.85" from_="L11" to="L40" /><trip id="bus_53" type="bus" depart="120.15" from_="L11" to="E0" /><trip id="bus_817" type="bus" depart="120.18" from_="L14" to="E7" /><trip id="bus_409" type="bus" depart="120.25" from_="-E7" to="L9" /><trip id="bus_665" type="bus" depart="120.33" from_="E21" to="L27" /><trip id="pkw_40" type="pkw" depart="120.41" from_="L11" to="L2" /><trip id="bus_118" type="bus" depart="120.47" from_="L2" to="L23" /><trip id="pkw_170" type="pkw" depart="120.81" from_="E0" to="L22" /><trip id="pkw_426" type="pkw" depart="121.7" from_="L24" to="E0" /><trip id="bus_566" type="bus" depart="121.81" from_="L3" to="L12" /><trip id="pkw_589" type="pkw" depart="122.6" from_="L20" to="E7" /><trip id="pkw_52" type="pkw" depart="122.93" from_="E21" to="L27" /><trip id="pkw_722" type="pkw" depart="123.67" from_="L9" to="L14" /><trip id="bus_311" type="bus" depart="123.96" from_="L13" to="L20" /><trip id="pkw_960" type="pkw" depart="123.99" from_="L1" to="L12" /><trip id="pkw_504" type="pkw" depart="125.45" from_="L40" to="L1" /><trip id="bus_879" type="bus" depart="125.77" from_="L20" to="L1" /><trip id="bike_68" type="bike" depart="126.52" from_="E0" to="E21" /><trip id="bus_534" type="bus" depart="126.76" from_="E21" to="L27" /><trip id="bus_197" type="bus" depart="126.93" from_="L7" to="L2" /><trip id="pkw_595" type="pkw" depart="126.94" from_="L3" to="-E7" /><trip id="bus_146" type="bus" depart="127.42" from_="L1" to="L12" /><trip id="bus_914" type="bus" depart="127.62" from_="L12" to="L9" /><trip id="bus_228" type="bus" depart="127.65" from_="L23" to="L26" /><trip id="pkw_200" type="pkw" depart="127.7" from_="L41" to="L27" /><trip id="bus_320" type="bus" depart="128.02" from_="L22" to="L14" /><trip id="pkw_618" type="pkw" depart="128.36" from_="L27" to="L3" /><trip id="bus_942" type="bus" depart="128.49" from_="L10" to="L7" /><trip id="bus_612" type="bus" depart="129.07" from_="L15" to="L41" /><trip id="pkw_527" type="pkw" depart="129.18" from_="E21" to="L2" /><trip id="bike_908" type="bike" depart="129.23" from_="E7" to="E21" /><trip id="bus_270" type="bus" depart="129.85" from_="L27" to="L9" /><trip id="bus_236" type="bus" depart="130.29" from_="L23" to="L1" /><trip id="pkw_286" type="pkw" depart="130.44" from_="E7" to="21" /><trip id="pkw_480" type="pkw" depart="130.98" from_="-E7" to="L27" /><trip id="bus_187" type="bus" depart="131.0" from_="L24" to="L2" /><trip id="pkw_48" type="pkw" depart="131.5" from_="21" to="L8" /><trip id="bus_35" type="bus" depart="131.51" from_="E0" to="L22" /><trip id="bus_957" type="bus" depart="131.97" from_="L40" to="L8" /><trip id="pkw_816" type="pkw" depart="132.2" from_="L9" to="E7" /><trip id="pkw_564" type="pkw" depart="132.26" from_="L3" to="-E7" /><trip id="bus_793" type="bus" depart="132.64" from_="L3" to="L11" /><trip id="bus_191" type="bus" depart="132.73" from_="L7" to="L4" /><trip id="pkw_121" type="pkw" depart="132.94" from_="L1" to="E21" /><trip id="pkw_940" type="pkw" depart="133.48" from_="L40" to="L10" /><trip id="bus_100" type="bus" depart="133.61" from_="L41" to="L8" /><trip id="bus_995" type="bus" depart="133.84" from_="L22" to="-E7" /><trip id="bus_900" type="bus" depart="133.85" from_="L4" to="L40" /><trip id="bus_528" type="bus" depart="134.19" from_="L8" to="L22" /><trip id="bus_437" type="bus" depart="134.33" from_="L8" to="L14" /><trip id="bus_680" type="bus" depart="134.58" from_="L8" to="L23" /><trip id="pkw_948" type="pkw" depart="135.38" from_="L2" to="E21" /><trip id="bus_792" type="bus" depart="137.92" from_="E21" to="L9" /><trip id="pkw_484" type="pkw" depart="139.22" from_="L9" to="L23" /><trip id="bike_178" type="bike" depart="139.87" from_="L11" to="E7" /><trip id="bus_891" type="bus" depart="140.59" from_="L41" to="21" /><trip id="bus_576" type="bus" depart="140.73" from_="L15" to="L26" /><trip id="bus_9" type="bus" depart="141.1" from_="L20" to="L26" /><trip id="pkw_357" type="pkw" depart="141.62" from_="L26" to="L20" /><trip id="pkw_907" type="pkw" depart="141.68" from_="L22" to="L7" /><trip id="pkw_133" type="pkw" depart="142.56" from_="L11" to="L3" /><trip id="pkw_912" type="pkw" depart="144.98" from_="L20" to="L11" /><trip id="bus_489" type="bus" depart="145.26" from_="L41" to="-E7" /><trip id="pkw_109" type="pkw" depart="145.29" from_="E21" to="L40" /><trip id="bike_964" type="bike" depart="145.61" from_="L26" to="L15" /><trip id="bus_854" type="bus" depart="145.85" from_="L20" to="E0" /><trip id="pkw_287" type="pkw" depart="145.94" from_="L23" to="L41" /><trip id="bus_158" type="bus" depart="145.97" from_="L9" to="L5" /><trip id="bus_979" type="bus" depart="147.99" from_="L7" to="L13" /><trip id="bus_380" type="bus" depart="148.62" from_="L13" to="L22" /><trip id="bus_531" type="bus" depart="148.67" from_="L23" to="L22" /><trip id="pkw_344" type="pkw" depart="149.1" from_="L15" to="L41" /><trip id="bus_269" type="bus" depart="149.6" from_="L41" to="L4" /><trip id="pkw_558" type="pkw" depart="149.91" from_="L14" to="L40" /><trip id="bus_7" type="bus" depart="151.15" from_="E21" to="-E7" /><trip id="bus_620" type="bus" depart="152.41" from_="E0" to="L8" /><trip id="pkw_64" type="pkw" depart="153.43" from_="L7" to="L14" /><trip id="pkw_711" type="pkw" depart="154.24" from_="L13" to="L23" /><trip id="bus_547" type="bus" depart="154.28" from_="L40" to="E0" /><trip id="bus_523" type="bus" depart="154.31" from_="L13" to="21" /><trip id="pkw_105" type="pkw" depart="155.27" from_="L26" to="L5" /><trip id="bus_261" type="bus" depart="155.43" from_="L12" to="L1" /><trip id="bus_666" type="bus" depart="155.96" from_="L27" to="L13" /><trip id="bus_427" type="bus" depart="156.07" from_="L15" to="L24" /><trip id="pkw_959" type="pkw" depart="156.42" from_="E7" to="L14" /><trip id="pkw_772" type="pkw" depart="156.46" from_="L27" to="L8" /><trip id="pkw_155" type="pkw" depart="156.82" from_="L4" to="L24" /><trip id="bus_395" type="bus" depart="158.37" from_="L26" to="L40" /><trip id="pkw_168" type="pkw" depart="158.74" from_="L13" to="L4" /><trip id="bus_981" type="bus" depart="159.11" from_="L2" to="L10" /><trip id="pkw_866" type="pkw" depart="159.74" from_="L26" to="L2" /><trip id="pkw_637" type="pkw" depart="160.18" from_="L27" to="L41" /><trip id="pkw_108" type="pkw" depart="162.4" from_="L4" to="E21" /><trip id="pkw_77" type="pkw" depart="162.77" from_="L2" to="L1" /><trip id="bus_701" type="bus" depart="163.05" from_="L15" to="L5" /><trip id="bus_371" type="bus" depart="163.6" from_="-E7" to="L23" /><trip id="bus_638" type="bus" depart="163.62" from_="L3" to="L26" /><trip id="pkw_390" type="pkw" depart="163.74" from_="E0" to="L14" /><trip id="bus_828" type="bus" depart="164.13" from_="L7" to="L4" /><trip id="pkw_356" type="pkw" depart="164.27" from_="L5" to="L11" /><trip id="pkw_24" type="pkw" depart="165.04" from_="L13" to="L1" /><trip id="pkw_568" type="pkw" depart="165.54" from_="L14" to="L11" /><trip id="bus_244" type="bus" depart="166.52" from_="L3" to="L41" /><trip id="pkw_293" type="pkw" depart="167.19" from_="L22" to="L15" /><trip id="pkw_720" type="pkw" depart="167.99" from_="L20" to="21" /><trip id="bus_655" type="bus" depart="169.52" from_="21" to="L12" /><trip id="pkw_818" type="pkw" depart="169.87" from_="L20" to="L1" /><trip id="pkw_249" type="pkw" depart="170.13" from_="L1" to="L5" /><trip id="pkw_132" type="pkw" depart="170.49" from_="L4" to="L24" /><trip id="bus_135" type="bus" depart="172.7" from_="L22" to="L27" /><trip id="pkw_737" type="pkw" depart="172.87" from_="L7" to="L4" /><trip id="pkw_746" type="pkw" depart="173.91" from_="L22" to="L8" /><trip id="pkw_217" type="pkw" depart="174.18" from_="L41" to="L20" /><trip id="pkw_807" type="pkw" depart="174.24" from_="L24" to="L13" /><trip id="pkw_525" type="pkw" depart="174.52" from_="L7" to="L13" /><trip id="bus_39" type="bus" depart="174.81" from_="L23" to="L24" /><trip id="bus_982" type="bus" depart="175.16" from_="L9" to="L7" /><trip id="bus_921" type="bus" depart="175.37" from_="L14" to="L9" /><trip id="pkw_91" type="pkw" depart="176.51" from_="L1" to="L10" /><trip id="pkw_760" type="pkw" depart="177.53" from_="L27" to="L14" /><trip id="bus_593" type="bus" depart="178.67" from_="L15" to="21" /><trip id="bus_578" type="bus" depart="179.29" from_="L15" to="L26" /><trip id="pkw_868" type="pkw" depart="180.3" from_="L5" to="L7" /><trip id="bus_723" type="bus" depart="180.7" from_="L14" to="L13" /><trip id="pkw_116" type="pkw" depart="181.16" from_="-E7" to="L1" /><trip id="pkw_683" type="pkw" depart="181.94" from_="E7" to="L11" /><trip id="bus_252" type="bus" depart="182.13" from_="E0" to="E21" /><trip id="bus_257" type="bus" depart="182.82" from_="L15" to="L10" /><trip id="bus_174" type="bus" depart="183.08" from_="E7" to="L20" /><trip id="pkw_144" type="pkw" depart="183.36" from_="21" to="L41" /><trip id="bus_183" type="bus" depart="183.52" from_="L12" to="L13" /><trip id="pkw_278" type="pkw" depart="183.9" from_="L24" to="L9" /><trip id="bus_160" type="bus" depart="184.08" from_="L20" to="L40" /><trip id="bike_673" type="bike" depart="184.62" from_="L4" to="E0" /><trip id="bus_352" type="bus" depart="184.72" from_="L24" to="L12" /><trip id="bike_928" type="bike" depart="184.81" from_="L27" to="L14" /><trip id="bus_551" type="bus" depart="185.15" from_="L3" to="L41" /><trip id="bus_743" type="bus" depart="185.49" from_="L3" to="-E7" /><trip id="pkw_573" type="pkw" depart="185.95" from_="L2" to="L20" /><trip id="bike_284" type="bike" depart="186.16" from_="L1" to="L14" /><trip id="pkw_764" type="pkw" depart="186.85" from_="L41" to="L14" /><trip id="bus_369" type="bus" depart="187.33" from_="L3" to="21" /><trip id="bus_988" type="bus" depart="187.5" from_="L8" to="L4" /><trip id="pkw_176" type="pkw" depart="188.53" from_="L5" to="L8" /><trip id="pkw_164" type="pkw" depart="190.96" from_="L26" to="L10" /><trip id="bus_359" type="bus" depart="191.03" from_="L10" to="L23" /><trip id="bike_753" type="bike" depart="191.24" from_="L14" to="L15" /><trip id="pkw_241" type="pkw" depart="191.33" from_="L4" to="L22" /><trip id="bus_628" type="bus" depart="191.57" from_="L26" to="L27" /><trip id="bus_695" type="bus" depart="191.87" from_="L24" to="L7" /><trip id="pkw_592" type="pkw" depart="192.37" from_="E7" to="L7" /><trip id="bus_857" type="bus" depart="193.47" from_="L11" to="L7" /><trip id="pkw_130" type="pkw" depart="193.79" from_="E0" to="L15" /><trip id="pkw_392" type="pkw" depart="194.2" from_="L8" to="L40" /><trip id="bus_702" type="bus" depart="194.35" from_="L5" to="L26" /><trip id="pkw_901" type="pkw" depart="194.53" from_="L20" to="L26" /><trip id="pkw_141" type="pkw" depart="195.37" from_="L4" to="L22" /><trip id="pkw_847" type="pkw" depart="195.93" from_="L3" to="L4" /><trip id="pkw_246" type="pkw" depart="196.8" from_="L2" to="21" /><trip id="bus_823" type="bus" depart="197.11" from_="L5" to="E7" /><trip id="bus_509" type="bus" depart="198.05" from_="L9" to="L10" /><trip id="bike_681" type="bike" depart="198.77" from_="L7" to="L24" /><trip id="bus_165" type="bus" depart="199.43" from_="L41" to="L23" /><trip id="bus_280" type="bus" depart="200.68" from_="L5" to="L12" /><trip id="pkw_541" type="pkw" depart="200.99" from_="L26" to="L2" /><trip id="pkw_886" type="pkw" depart="201.07" from_="L4" to="L20" /><trip id="pkw_397" type="pkw" depart="201.21" from_="L27" to="L12" /><trip id="bus_510" type="bus" depart="201.97" from_="L2" to="E21" /><trip id="bus_466" type="bus" depart="202.3" from_="L40" to="-E7" /><trip id="bus_107" type="bus" depart="202.47" from_="L5" to="L4" /><trip id="bus_624" type="bus" depart="202.72" from_="L41" to="E7" /><trip id="bus_582" type="bus" depart="203.03" from_="L3" to="L20" /><trip id="bus_70" type="bus" depart="203.18" from_="L12" to="L8" /><trip id="bus_126" type="bus" depart="204.08" from_="L20" to="L7" /><trip id="bus_567" type="bus" depart="204.08" from_="L20" to="E0" /><trip id="pkw_267" type="pkw" depart="204.23" from_="L10" to="L13" /><trip id="pkw_221" type="pkw" depart="204.24" from_="L22" to="L41" /><trip id="bus_406" type="bus" depart="204.45" from_="E7" to="L10" /><trip id="pkw_515" type="pkw" depart="204.46" from_="-E7" to="L27" /><trip id="pkw_173" type="pkw" depart="205.0" from_="L7" to="E7" /><trip id="bus_28" type="bus" depart="205.13" from_="L11" to="L41" /><trip id="pkw_196" type="pkw" depart="206.84" from_="L12" to="L4" /><trip id="bus_355" type="bus" depart="206.99" from_="L27" to="L13" /><trip id="pkw_619" type="pkw" depart="207.36" from_="E0" to="L8" /><trip id="pkw_876" type="pkw" depart="208.76" from_="L10" to="L7" /><trip id="pkw_231" type="pkw" depart="209.77" from_="L1" to="L2" /><trip id="pkw_479" type="pkw" depart="210.25" from_="L4" to="L1" /><trip id="pkw_372" type="pkw" depart="210.57" from_="L27" to="L26" /><trip id="pkw_627" type="pkw" depart="210.67" from_="L26" to="L2" /><trip id="pkw_530" type="pkw" depart="210.96" from_="E21" to="L8" /><trip id="pkw_454" type="pkw" depart="211.35" from_="L14" to="L9" /><trip id="pkw_490" type="pkw" depart="211.94" from_="L7" to="L1" /><trip id="pkw_491" type="pkw" depart="212.01" from_="L1" to="L22" /><trip id="bus_926" type="bus" depart="212.81" from_="L5" to="L10" /><trip id="pkw_277" type="pkw" depart="213.12" from_="L7" to="L1" /><trip id="pkw_1" type="pkw" depart="213.45" from_="-E7" to="L20" /><trip id="pkw_782" type="pkw" depart="213.8" from_="L9" to="L11" /><trip id="bus_339" type="bus" depart="214.68" from_="L5" to="L8" /><trip id="bus_475" type="bus" depart="215.14" from_="L22" to="L23" /><trip id="bike_271" type="bike" depart="215.41" from_="L4" to="L12" /><trip id="pkw_721" type="pkw" depart="215.59" from_="L12" to="L11" /><trip id="bus_487" type="bus" depart="215.74" from_="L4" to="L26" /><trip id="bus_306" type="bus" depart="215.97" from_="L24" to="L8" /><trip id="bus_529" type="bus" depart="216.19" from_="L15" to="L40" /><trip id="pkw_199" type="pkw" depart="216.22" from_="L13" to="L41" /><trip id="bus_539" type="bus" depart="216.54" from_="L15" to="L1" /><trip id="pkw_112" type="pkw" depart="216.56" from_="-E7" to="L15" /><trip id="pkw_724" type="pkw" depart="217.68" from_="E7" to="L41" /><trip id="pkw_674" type="pkw" depart="217.8" from_="L40" to="L22" /><trip id="bus_377" type="bus" depart="218.3" from_="L2" to="L40" /><trip id="pkw_916" type="pkw" depart="218.31" from_="L11" to="L20" /><trip id="pkw_997" type="pkw" depart="219.32" from_="L27" to="L13" /><trip id="pkw_911" type="pkw" depart="219.85" from_="L9" to="L12" /><trip id="bus_23" type="bus" depart="220.28" from_="21" to="L12" /><trip id="bus_839" type="bus" depart="220.71" from_="L2" to="L9" /><trip id="pkw_459" type="pkw" depart="221.21" from_="L22" to="L20" /><trip id="pkw_2" type="pkw" depart="221.22" from_="L5" to="L22" /><trip id="pkw_656" type="pkw" depart="221.23" from_="L24" to="L7" /><trip id="pkw_549" type="pkw" depart="221.38" from_="E0" to="L40" /><trip id="pkw_778" type="pkw" depart="221.7" from_="L13" to="L20" /><trip id="pkw_110" type="pkw" depart="222.17" from_="L13" to="L3" /><trip id="bike_569" type="bike" depart="223.65" from_="L1" to="L3" /><trip id="pkw_546" type="pkw" depart="224.35" from_="L12" to="L5" /><trip id="scooter_676" type="scooter" depart="224.48" from_="E7" to="L15" /><trip id="bus_699" type="bus" depart="225.14" from_="L5" to="L7" /><trip id="bus_972" type="bus" depart="225.22" from_="L9" to="E0" /><trip id="bus_955" type="bus" depart="226.13" from_="L20" to="L23" /><trip id="pkw_410" type="pkw" depart="226.5" from_="21" to="L12" /><trip id="bus_493" type="bus" depart="226.8" from_="L8" to="E21" /><trip id="bus_204" type="bu