<?xml version="1.0" encoding="UTF-8"?>

<!-- generated on 2025-03-23 16:01:37 by Eclipse SUMO netedit Version 1.21.0
<neteditConfiguration xmlns:xsi="http://www.w3.org/2001/XMLSchema-instance" xsi:noNamespaceSchemaLocation="http://sumo.dlr.de/xsd/neteditConfiguration.xsd">

    <input>
        <sumocfg-file value="C:\Users\Nguyen Minh Quan\OneDrive\OneDrive - student.vgu.edu.vn\RMIT_Feb\DirectoryName\22302025\Nguyen-Van-Linh-SUMO\simpleT.sumocfg"/>
        <additional-files value=""/>
        <route-files value="C:\Users\Nguyen Minh Quan\OneDrive\OneDrive - student.vgu.edu.vn\RMIT_Feb\DirectoryName\22302025\Nguyen-Van-Linh-SUMO\simpleT.rou.xml"/>
        <sumo-net-file value="C:\Users\Nguyen Minh Quan\OneDrive\OneDrive - student.vgu.edu.vn\RMIT_Feb\DirectoryName\22302025\Nguyen-Van-Linh-SUMO\simpleT.net.xml"/>
    </input>

    <output>
        <output-file value="C:\Users\Nguyen Minh Quan\OneDrive\OneDrive - student.vgu.edu.vn\RMIT_Feb\DirectoryName\22302025\Nguyen-Van-Linh-SUMO\simpleT.net.xml"/>
    </output>

    <processing>
        <geometry.min-radius.fix.railways value="false"/>
        <geometry.max-grade.fix value="false"/>
        <offset.disable-normalization value="true"/>
        <lefthand value="0"/>
    </processing>

    <junctions>
        <no-turnarounds value="true"/>
        <junctions.corner-detail value="5"/>
        <junctions.limit-turn-speed value="5.50"/>
        <rectangular-lane-cut value="0"/>
    </junctions>

    <pedestrian>
        <walkingareas value="0"/>
    </pedestrian>

    <netedit>
        <ignore.routeelements value="false"/>
    </netedit>

</neteditConfiguration>
-->

<net version="1.20" junctionCornerDetail="5" limitTurnSpeed="5.50" xmlns:xsi="http://www.w3.org/2001/XMLSchema-instance" xsi:noNamespaceSchemaLocation="http://sumo.dlr.de/xsd/net_file.xsd">

    <location netOffset="0.00,0.00" convBoundary="440.27,-430.85,1637.36,356.83" origBoundary="-10000000000.00,-10000000000.00,10000000000.00,10000000000.00" projParameter="!"/>

    <edge id=":2_0" function="internal">
        <lane id=":2_0_0" index="0" speed="13.89" length="0.30" shape="730.94,8.87 730.63,8.87"/>
        <lane id=":2_0_1" index="1" speed="13.89" length="0.30" shape="730.93,5.67 730.63,5.67"/>
        <lane id=":2_0_2" index="2" speed="13.89" length="0.30" shape="730.92,2.47 730.64,2.47"/>
    </edge>
    <edge id=":3_0" function="internal">
        <lane id=":3_0_0" index="0" speed="6.52" length="9.07" shape="1013.78,8.16 1011.33,8.51 1009.58,9.57 1008.52,11.33 1008.17,13.79"/>
    </edge>
    <edge id=":3_1" function="internal">
        <lane id=":3_1_0" index="0" speed="13.89" length="27.22" shape="1013.78,8.16 986.57,8.20"/>
        <lane id=":3_1_1" index="1" speed="13.89" length="27.22" shape="1013.78,4.96 986.56,5.00"/>
        <lane id=":3_1_2" index="2" speed="13.89" length="27.22" shape="1013.78,1.76 986.55,1.80"/>
    </edge>
    <edge id=":3_4" function="internal">
        <lane id=":3_4_0" index="0" speed="9.43" length="20.15" shape="1013.78,1.76 1005.73,1.44 999.98,0.50 996.53,-1.07 995.39,-3.26"/>
        <lane id=":3_4_1" index="1" speed="8.73" length="17.14" shape="1013.78,1.76 1007.13,1.44 1002.38,0.51 999.53,-1.06 998.59,-3.25"/>
    </edge>
    <edge id=":3_6" function="internal">
        <lane id=":3_6_0" index="0" speed="13.89" length="17.03" shape="1008.19,-3.22 1008.17,13.79"/>
        <lane id=":3_6_1" index="1" speed="13.89" length="17.03" shape="1004.99,-3.23 1004.97,13.79"/>
        <lane id=":3_6_2" index="2" speed="13.89" length="17.03" shape="1001.79,-3.24 1001.77,13.79"/>
    </edge>
    <edge id=":3_9" function="internal">
        <lane id=":3_9_0" index="0" speed="8.77" length="17.17" shape="1001.79,-3.24 1000.83,-1.05 997.97,0.52 993.21,1.47 986.55,1.80"/>
    </edge>
    <edge id=":3_10" function="internal">
        <lane id=":3_10_0" index="0" speed="6.50" length="9.03" shape="992.17,13.79 991.82,11.33 990.77,9.59 989.02,8.54 986.57,8.20"/>
    </edge>
    <edge id=":3_11" function="internal">
        <lane id=":3_11_0" index="0" speed="13.89" length="17.05" shape="992.17,13.79 992.19,-3.27"/>
        <lane id=":3_11_1" index="1" speed="13.89" length="17.05" shape="995.37,13.79 995.39,-3.26"/>
        <lane id=":3_11_2" index="2" speed="13.89" length="17.05" shape="998.57,13.79 998.59,-3.25"/>
    </edge>
    <edge id=":J10_0" function="internal">
        <lane id=":J10_0_0" index="0" speed="6.38" length="8.62" shape="1013.83,-8.47 1011.37,-8.16 1009.61,-7.21 1008.55,-5.63 1008.19,-3.42"/>
    </edge>
    <edge id=":J10_1" function="internal">
        <lane id=":J10_1_0" index="0" disallow="motorcycle moped bicycle aircraft wheelchair scooter drone custom1 custom2" speed="13.89" length="27.24" shape="1013.83,-8.47 986.60,-8.45"/>
        <lane id=":J10_1_1" index="1" disallow="motorcycle moped bicycle aircraft wheelchair scooter drone custom1 custom2" speed="13.89" length="27.24" shape="1013.83,-11.67 986.59,-11.65"/>
        <lane id=":J10_1_2" index="2" disallow="motorcycle moped bicycle aircraft wheelchair scooter drone custom1 custom2" speed="13.89" length="27.24" shape="1013.83,-14.87 986.59,-14.85"/>
    </edge>
    <edge id=":J10_4" function="internal">
        <lane id=":J10_4_0" index="0" speed="9.51" length="20.48" shape="1013.83,-14.87 1005.78,-15.22 1000.03,-16.27 996.58,-18.02 995.43,-20.48"/>
        <lane id=":J10_4_1" index="1" speed="8.83" length="17.50" shape="1013.83,-14.87 1007.18,-15.22 1002.43,-16.27 999.58,-18.02 998.63,-20.48"/>
    </edge>
    <edge id=":J10_6" function="internal">
        <lane id=":J10_6_0" index="0" speed="13.89" length="17.04" shape="1008.23,-20.47 1008.19,-3.42"/>
        <lane id=":J10_6_1" index="1" speed="13.89" length="17.04" shape="1005.03,-20.47 1004.99,-3.43"/>
        <lane id=":J10_6_2" index="2" speed="13.89" length="17.04" shape="1001.83,-20.48 1001.79,-3.44"/>
    </edge>
    <edge id=":J10_9" function="internal">
        <lane id=":J10_9_0" index="0" disallow="motorcycle moped bicycle aircraft wheelchair scooter drone custom1 custom2" speed="8.84" length="17.54" shape="1001.83,-20.48 1000.88,-18.02 998.02,-16.27 993.26,-15.21 986.59,-14.85"/>
    </edge>
    <edge id=":J10_10" function="internal">
        <lane id=":J10_10_0" index="0" disallow="motorcycle moped bicycle aircraft wheelchair scooter drone custom1 custom2" speed="6.34" length="8.54" shape="992.19,-3.47 991.85,-5.65 990.80,-7.21 989.05,-8.14 986.60,-8.45"/>
    </edge>
    <edge id=":J10_11" function="internal">
        <lane id=":J10_11_0" index="0" speed="13.89" length="17.01" shape="992.19,-3.47 992.23,-20.48"/>
        <lane id=":J10_11_1" index="1" speed="13.89" length="17.01" shape="995.39,-3.46 995.43,-20.48"/>
        <lane id=":J10_11_2" index="2" speed="13.89" length="17.01" shape="998.59,-3.45 998.63,-20.48"/>
    </edge>
    <edge id=":J11_0" function="internal">
        <lane id=":J11_0_0" index="0" disallow="motorcycle moped bicycle aircraft wheelchair scooter drone custom1 custom2" speed="13.89" length="0.32" shape="733.78,-8.06 733.24,-8.08"/>
        <lane id=":J11_0_1" index="1" disallow="motorcycle moped bicycle aircraft wheelchair scooter drone custom1 custom2" speed="13.89" length="0.32" shape="733.78,-11.26 733.45,-11.27"/>
        <lane id=":J11_0_2" index="2" disallow="motorcycle moped bicycle aircraft wheelchair scooter drone custom1 custom2" speed="13.89" length="0.32" shape="733.77,-14.46 733.66,-14.46"/>
    </edge>
    <edge id=":J13_0" function="internal">
        <lane id=":J13_0_0" index="0" disallow="pedestrian motorcycle moped bicycle aircraft wheelchair scooter drone custom1 custom2" speed="6.43" length="8.69" shape="1008.49,-157.67 1008.81,-155.45 1009.85,-153.83 1011.60,-152.82 1014.07,-152.43"/>
    </edge>
    <edge id=":J13_1" function="internal">
        <lane id=":J13_1_0" index="0" speed="13.89" length="17.12" shape="1008.49,-157.67 1008.28,-140.61"/>
        <lane id=":J13_1_1" index="1" speed="13.89" length="17.12" shape="1005.29,-157.73 1005.08,-140.61"/>
        <lane id=":J13_1_2" index="2" speed="13.89" length="17.12" shape="1002.09,-157.78 1001.88,-140.61"/>
    </edge>
    <edge id=":J13_4" function="internal">
        <lane id=":J13_4_0" index="0" speed="6.45" length="8.74" shape="986.73,-152.84 989.22,-153.16 991.01,-154.12 992.10,-155.71 992.50,-157.94"/>
    </edge>
    <edge id=":J13_5" function="internal">
        <lane id=":J13_5_0" index="0" disallow="pedestrian motorcycle moped bicycle aircraft wheelchair scooter drone custom1 custom2" speed="13.89" length="27.24" shape="986.73,-152.84 1014.07,-152.43"/>
        <lane id=":J13_5_1" index="1" disallow="pedestrian motorcycle moped bicycle aircraft wheelchair scooter drone custom1 custom2" speed="13.89" length="27.24" shape="986.73,-149.64 1013.97,-149.23"/>
        <lane id=":J13_5_2" index="2" disallow="pedestrian motorcycle moped bicycle aircraft wheelchair scooter drone custom1 custom2" speed="13.89" length="27.24" shape="986.73,-146.44 1013.87,-146.03"/>
    </edge>
    <edge id=":J13_8" function="internal">
        <lane id=":J13_8_0" index="0" speed="9.52" length="20.56" shape="986.73,-146.44 994.76,-146.08 1000.49,-144.99 1003.93,-143.17 1005.08,-140.61"/>
        <lane id=":J13_8_1" index="1" speed="8.84" length="17.59" shape="986.73,-146.44 993.36,-146.08 998.09,-144.99 1000.93,-143.17 1001.88,-140.61"/>
    </edge>
    <edge id=":J13_10" function="internal">
        <lane id=":J13_10_0" index="0" speed="13.89" length="17.27" shape="992.28,-140.62 992.50,-157.94"/>
        <lane id=":J13_10_1" index="1" speed="13.89" length="17.27" shape="995.48,-140.62 995.70,-157.89"/>
        <lane id=":J13_10_2" index="2" speed="13.89" length="17.27" shape="998.68,-140.62 998.90,-157.83"/>
    </edge>
    <edge id=":J13_13" function="internal">
        <lane id=":J13_13_0" index="0" disallow="pedestrian motorcycle moped bicycle aircraft wheelchair scooter drone custom1 custom2" speed="8.75" length="17.55" shape="998.68,-140.62 999.63,-143.16 1002.48,-144.91 1007.23,-145.87 1013.87,-146.03"/>
    </edge>
    <edge id=":J14_0" function="internal">
        <lane id=":J14_0_0" index="0" disallow="pedestrian motorcycle moped bicycle aircraft wheelchair scooter drone custom1 custom2" speed="13.89" length="0.44" shape="1289.10,-144.02 1289.32,-144.01 1289.47,-144.00 1289.62,-143.99 1289.83,-143.96"/>
        <lane id=":J14_0_1" index="1" disallow="pedestrian motorcycle moped bicycle aircraft wheelchair scooter drone custom1 custom2" speed="13.89" length="0.44" shape="1289.01,-140.82 1289.14,-140.81 1289.23,-140.81 1289.31,-140.80 1289.44,-140.78"/>
        <lane id=":J14_0_2" index="2" disallow="pedestrian motorcycle moped bicycle aircraft wheelchair scooter drone custom1 custom2" speed="13.89" length="0.44" shape="1288.91,-137.62 1288.95,-137.62 1288.98,-137.62 1289.01,-137.61 1289.05,-137.61"/>
    </edge>
    <edge id=":J16_0" function="internal">
        <lane id=":J16_0_0" index="0" allow="private emergency authority vip pedestrian passenger hov taxi bus motorcycle moped bicycle evehicle scooter" speed="6.54" length="9.10" shape="1008.53,-175.36 1008.88,-172.89 1009.94,-171.12 1011.71,-170.06 1014.17,-169.71"/>
    </edge>
    <edge id=":J16_1" function="internal">
        <lane id=":J16_1_0" index="0" speed="13.89" length="17.42" shape="1008.53,-175.36 1008.50,-157.87"/>
        <lane id=":J16_1_1" index="1" speed="13.89" length="17.42" shape="1005.33,-175.35 1005.30,-157.93"/>
        <lane id=":J16_1_2" index="2" speed="13.89" length="17.42" shape="1002.13,-175.34 1002.10,-157.98"/>
    </edge>
    <edge id=":J16_4" function="internal">
        <lane id=":J16_4_0" index="0" speed="6.50" length="9.03" shape="986.94,-169.71 989.39,-170.06 991.14,-171.12 992.18,-172.87 992.53,-175.32"/>
    </edge>
    <edge id=":J16_5" function="internal">
        <lane id=":J16_5_0" index="0" allow="private emergency authority vip pedestrian passenger hov taxi bus motorcycle moped bicycle evehicle scooter" speed="13.89" length="27.23" shape="986.94,-169.71 1014.17,-169.71"/>
        <lane id=":J16_5_1" index="1" allow="private emergency authority vip pedestrian passenger hov taxi bus motorcycle moped bicycle evehicle scooter" speed="13.89" length="27.23" shape="986.94,-166.51 1014.17,-166.51"/>
        <lane id=":J16_5_2" index="2" allow="private emergency authority vip pedestrian passenger hov taxi bus motorcycle moped bicycle evehicle scooter" speed="13.89" length="27.23" shape="986.94,-163.31 1014.16,-163.31"/>
    </edge>
    <edge id=":J16_8" function="internal">
        <lane id=":J16_8_0" index="0" speed="9.42" length="20.34" shape="986.94,-163.31 995.01,-162.98 1000.75,-161.97 1004.18,-160.29 1005.30,-157.93"/>
        <lane id=":J16_8_1" index="1" speed="8.73" length="17.32" shape="986.94,-163.31 993.60,-162.98 998.35,-161.98 1001.18,-160.32 1002.10,-157.98"/>
    </edge>
    <edge id=":J16_10" function="internal">
        <lane id=":J16_10_0" index="0" speed="13.89" length="17.24" shape="992.50,-158.14 992.53,-175.32"/>
        <lane id=":J16_10_1" index="1" speed="13.89" length="17.24" shape="995.70,-158.09 995.73,-175.33"/>
        <lane id=":J16_10_2" index="2" speed="13.89" length="17.24" shape="998.90,-158.03 998.93,-175.34"/>
    </edge>
    <edge id=":J16_13" function="internal">
        <lane id=":J16_13_0" index="0" allow="private emergency authority vip pedestrian passenger hov taxi bus motorcycle moped bicycle evehicle scooter" speed="8.84" length="17.34" shape="998.90,-158.03 999.89,-160.35 1002.76,-162.00 1007.52,-162.98 1014.16,-163.31"/>
    </edge>
    <edge id=":J3_0" function="internal">
        <lane id=":J3_0_0" index="0" speed="13.89" length="82.47" shape="1391.25,-131.53 1408.15,-129.23 1431.95,-125.95 1455.76,-123.01 1472.73,-121.74"/>
        <lane id=":J3_0_1" index="1" speed="13.89" length="82.47" shape="1390.86,-128.35 1407.82,-126.05 1431.75,-122.76 1455.70,-119.82 1472.73,-118.54"/>
        <lane id=":J3_0_2" index="2" speed="13.89" length="82.47" shape="1390.47,-125.18 1407.50,-122.87 1431.56,-119.57 1455.64,-116.62 1472.73,-115.34"/>
    </edge>
    <edge id=":J3_3" function="internal">
        <lane id=":J3_3_0" index="0" allow="private emergency authority vip passenger hov taxi bus coach delivery truck trailer evehicle ship container" speed="13.89" length="82.46" shape="1390.27,-121.81 1472.73,-121.74"/>
        <lane id=":J3_3_1" index="1" allow="private emergency authority vip passenger hov taxi bus coach delivery truck trailer evehicle ship container" speed="13.89" length="82.46" shape="1390.26,-118.61 1472.73,-118.54"/>
        <lane id=":J3_3_2" index="2" allow="private emergency authority vip passenger hov taxi bus coach delivery truck trailer evehicle ship container" speed="13.89" length="82.46" shape="1390.26,-115.41 1472.73,-115.34"/>
    </edge>
    <edge id=":J5_0" function="internal">
        <lane id=":J5_0_0" index="0" speed="13.89" length="3.01" shape="528.25,-21.59 525.24,-21.71"/>
        <lane id=":J5_0_1" index="1" speed="13.89" length="3.01" shape="528.23,-24.80 525.23,-24.91"/>
        <lane id=":J5_0_2" index="2" speed="13.89" length="3.01" shape="528.22,-28.00 525.23,-28.11"/>
    </edge>
    <edge id=":J5_3" function="internal">
        <lane id=":J5_3_0" index="0" speed="13.89" length="3.00" shape="528.25,-21.72 525.24,-21.71"/>
        <lane id=":J5_3_1" index="1" speed="13.89" length="3.00" shape="528.23,-24.92 525.23,-24.91"/>
        <lane id=":J5_3_2" index="2" speed="13.89" length="3.00" shape="528.22,-28.12 525.23,-28.11"/>
    </edge>

    <edge id="-E15" from="J16" to="J13" priority="-1" shape="1000.56,-161.72 1000.28,-144.85">
        <lane id="-E15_0" index="0" speed="13.89" length="0.20" shape="1008.50,-157.87 1008.49,-157.67"/>
        <lane id="-E15_1" index="1" speed="13.89" length="0.20" shape="1005.30,-157.93 1005.29,-157.73"/>
        <lane id="-E15_2" index="2" speed="13.89" length="0.20" shape="1002.10,-157.98 1002.09,-157.78"/>
    </edge>
    <edge id="-E16" from="J10" to="3" priority="-1" shape="1000.23,-16.47 1000.18,0.16">
        <lane id="-E16_0" index="0" speed="13.89" length="0.20" shape="1008.19,-3.42 1008.19,-3.22"/>
        <lane id="-E16_1" index="1" speed="13.89" length="0.20" shape="1004.99,-3.43 1004.99,-3.23"/>
        <lane id="-E16_2" index="2" speed="13.89" length="0.20" shape="1001.79,-3.44 1001.79,-3.24"/>
    </edge>
    <edge id="E15" from="J13" to="J16" priority="-1" shape="1000.28,-144.85 1000.56,-161.72">
        <lane id="E15_0" index="0" speed="13.89" length="0.20" shape="992.50,-157.94 992.50,-158.14"/>
        <lane id="E15_1" index="1" speed="13.89" length="0.20" shape="995.70,-157.89 995.70,-158.09"/>
        <lane id="E15_2" index="2" speed="13.89" length="0.20" shape="998.90,-157.83 998.90,-158.03"/>
    </edge>
    <edge id="E16" from="3" to="J10" priority="-1" shape="1000.18,0.16 1000.23,-16.47">
        <lane id="E16_0" index="0" speed="13.89" length="0.20" shape="992.19,-3.27 992.19,-3.47"/>
        <lane id="E16_1" index="1" speed="13.89" length="0.20" shape="995.39,-3.26 995.39,-3.46"/>
        <lane id="E16_2" index="2" speed="13.89" length="0.20" shape="998.59,-3.25 998.59,-3.45"/>
    </edge>
    <edge id="E2" from="J14" to="J3" priority="-1">
        <lane id="E2_0" index="0" speed="13.89" length="102.18" shape="1289.83,-143.96 1391.25,-131.53"/>
        <lane id="E2_1" index="1" speed="13.89" length="102.18" shape="1289.44,-140.78 1390.86,-128.35"/>
        <lane id="E2_2" index="2" speed="13.89" length="102.18" shape="1289.05,-137.61 1390.47,-125.18"/>
    </edge>
    <edge id="E4" from="2" to="J6" priority="-1">
        <lane id="E4_0" index="0" speed="13.89" length="288.80" shape="730.63,8.87 441.83,8.55"/>
        <lane id="E4_1" index="1" speed="13.89" length="288.80" shape="730.63,5.67 441.83,5.35"/>
        <lane id="E4_2" index="2" speed="13.89" length="288.80" shape="730.64,2.47 441.84,2.15"/>
    </edge>
    <edge id="E5" from="J11" to="J5" priority="-1">
        <lane id="E5_0" index="0" speed="13.89" length="205.67" shape="733.24,-8.08 528.25,-21.59"/>
        <lane id="E5_1" index="1" speed="13.89" length="205.67" shape="733.45,-11.27 528.23,-24.80"/>
        <lane id="E5_2" index="2" speed="13.89" length="205.67" shape="733.66,-14.46 528.22,-28.00"/>
    </edge>
    <edge id="L1" from="4" to="3" priority="3" length="986.40" shape="1637.36,0.00 1000.18,0.16">
        <lane id="L1_0" index="0" speed="13.89" length="986.40" shape="1637.36,8.00 1013.78,8.16"/>
        <lane id="L1_1" index="1" speed="13.89" length="986.40" shape="1637.36,4.80 1013.78,4.96"/>
        <lane id="L1_2" index="2" speed="13.89" length="986.40" shape="1637.36,1.60 1013.78,1.76"/>
    </edge>
    <edge id="L10" from="3" to="2" priority="3" shape="1000.18,0.16 730.78,0.87">
        <lane id="L10_0" index="0" speed="13.89" length="255.63" shape="986.57,8.20 730.94,8.87"/>
        <lane id="L10_1" index="1" speed="13.89" length="255.63" shape="986.56,5.00 730.93,5.67"/>
        <lane id="L10_2" index="2" speed="13.89" length="255.63" shape="986.55,1.80 730.92,2.47"/>
    </edge>
    <edge id="L11" from="J10" to="J11" priority="-1">
        <lane id="L11_0" index="0" disallow="motorcycle moped bicycle aircraft wheelchair scooter drone custom1 custom2" speed="13.89" length="252.82" shape="986.60,-8.45 733.78,-8.06"/>
        <lane id="L11_1" index="1" disallow="motorcycle moped bicycle aircraft wheelchair scooter drone custom1 custom2" speed="13.89" length="252.82" shape="986.59,-11.65 733.78,-11.26"/>
        <lane id="L11_2" index="2" disallow="motorcycle moped bicycle aircraft wheelchair scooter drone custom1 custom2" speed="13.89" length="252.82" shape="986.59,-14.85 733.77,-14.46"/>
    </edge>
    <edge id="L12" from="J13" to="J14" priority="-1">
        <lane id="L12_0" index="0" disallow="pedestrian motorcycle moped bicycle aircraft wheelchair scooter drone custom1 custom2" speed="13.89" length="275.17" shape="1014.07,-152.43 1289.10,-144.02"/>
        <lane id="L12_1" index="1" disallow="pedestrian motorcycle moped bicycle aircraft wheelchair scooter drone custom1 custom2" speed="13.89" length="275.17" shape="1013.97,-149.23 1289.01,-140.82"/>
        <lane id="L12_2" index="2" disallow="pedestrian motorcycle moped bicycle aircraft wheelchair scooter drone custom1 custom2" speed="13.89" length="275.17" shape="1013.87,-146.03 1288.91,-137.62"/>
    </edge>
    <edge id="L13" from="J16" to="J18" priority="-1" shape="1000.56,-161.72 999.88,-430.85">
        <lane id="L13_0" index="0" speed="13.89" length="255.51" shape="992.53,-175.32 991.88,-430.83"/>
        <lane id="L13_1" index="1" speed="13.89" length="255.51" shape="995.73,-175.33 995.08,-430.84"/>
        <lane id="L13_2" index="2" speed="13.89" length="255.51" shape="998.93,-175.34 998.28,-430.85"/>
    </edge>
    <edge id="L14" from="J16" to="J17" priority="-1" shape="1000.56,-161.72 1632.36,-161.08">
        <lane id="L14_0" index="0" allow="private emergency authority vip pedestrian passenger hov taxi bus motorcycle moped bicycle evehicle scooter" speed="13.89" length="618.20" shape="1014.17,-169.71 1632.37,-169.08"/>
        <lane id="L14_1" index="1" allow="private emergency authority vip pedestrian passenger hov taxi bus motorcycle moped bicycle evehicle scooter" speed="13.89" length="618.20" shape="1014.17,-166.51 1632.36,-165.88"/>
        <lane id="L14_2" index="2" allow="private emergency authority vip pedestrian passenger hov taxi bus motorcycle moped bicycle evehicle scooter" speed="13.89" length="618.20" shape="1014.16,-163.31 1632.36,-162.68"/>
    </edge>
    <edge id="L2" from="J9" to="J10" priority="-1">
        <lane id="L2_0" index="0" speed="13.89" length="617.78" shape="1631.61,-8.61 1013.83,-8.47"/>
        <lane id="L2_1" index="1" speed="13.89" length="617.78" shape="1631.61,-11.81 1013.83,-11.67"/>
        <lane id="L2_2" index="2" speed="13.89" length="617.78" shape="1631.61,-15.01 1013.83,-14.87"/>
    </edge>
    <edge id="L3" from="J12" to="J13" priority="-1">
        <lane id="L3_0" index="0" speed="13.89" length="534.04" shape="452.69,-152.30 986.73,-152.84"/>
        <lane id="L3_1" index="1" speed="13.89" length="534.04" shape="452.70,-149.10 986.73,-149.64"/>
        <lane id="L3_2" index="2" speed="13.89" length="534.04" shape="452.70,-145.90 986.73,-146.44"/>
    </edge>
    <edge id="L30" from="J0" to="J5" priority="-1">
        <lane id="L30_0" index="0" speed="13.89" length="1105.35" shape="1633.59,-26.61 528.25,-21.72"/>
        <lane id="L30_1" index="1" speed="13.89" length="1105.35" shape="1633.57,-29.81 528.23,-24.92"/>
        <lane id="L30_2" index="2" speed="13.89" length="1105.35" shape="1633.56,-33.01 528.22,-28.12"/>
    </edge>
    <edge id="L31" from="J5" to="J7" priority="-1">
        <lane id="L31_0" index="0" speed="13.89" length="84.95" shape="525.24,-21.71 440.28,-21.58"/>
        <lane id="L31_1" index="1" speed="13.89" length="84.95" shape="525.23,-24.91 440.28,-24.78"/>
        <lane id="L31_2" index="2" speed="13.89" length="84.95" shape="525.23,-28.11 440.27,-27.98"/>
    </edge>
    <edge id="L33" from="J2" to="J3" priority="-1">
        <lane id="L33_0" index="0" allow="private emergency authority vip passenger hov taxi bus coach delivery truck trailer evehicle ship container" speed="13.89" length="940.88" shape="449.39,-122.61 1390.27,-121.81"/>
        <lane id="L33_1" index="1" allow="private emergency authority vip passenger hov taxi bus coach delivery truck trailer evehicle ship container" speed="13.89" length="940.88" shape="449.38,-119.41 1390.26,-118.61"/>
        <lane id="L33_2" index="2" allow="private emergency authority vip passenger hov taxi bus coach delivery truck trailer evehicle ship container" speed="13.89" length="940.88" shape="449.38,-116.21 1390.26,-115.41"/>
    </edge>
    <edge id="L34" from="J3" to="J1" priority="-1">
        <lane id="L34_0" index="0" speed="13.89" length="162.52" shape="1472.73,-121.74 1635.25,-121.73"/>
        <lane id="L34_1" index="1" speed="13.89" length="162.52" shape="1472.73,-118.54 1635.25,-118.53"/>
        <lane id="L34_2" index="2" speed="13.89" length="162.52" shape="1472.73,-115.34 1635.25,-115.33"/>
    </edge>
    <edge id="L4" from="J15" to="J16" priority="-1" shape="459.67,-161.43 1000.56,-161.72">
        <lane id="L4_0" index="0" speed="13.89" length="527.27" shape="459.67,-169.43 986.94,-169.71"/>
        <lane id="L4_1" index="1" speed="13.89" length="527.27" shape="459.67,-166.23 986.94,-166.51"/>
        <lane id="L4_2" index="2" speed="13.89" length="527.27" shape="459.67,-163.03 986.94,-163.31"/>
    </edge>
    <edge id="L5" from="J18" to="J16" priority="-1" shape="999.88,-430.85 1000.56,-161.72">
        <lane id="L5_0" index="0" speed="13.89" length="255.51" shape="1007.88,-430.87 1008.53,-175.36"/>
        <lane id="L5_1" index="1" speed="13.89" length="255.51" shape="1004.68,-430.86 1005.33,-175.35"/>
        <lane id="L5_2" index="2" speed="13.89" length="255.51" shape="1001.48,-430.85 1002.13,-175.34"/>
    </edge>
    <edge id="L6" from="J10" to="J13" priority="-1" length="100.14">
        <lane id="L6_0" index="0" speed="13.89" length="100.14" shape="992.23,-20.48 992.28,-140.62"/>
        <lane id="L6_1" index="1" speed="13.89" length="100.14" shape="995.43,-20.48 995.48,-140.62"/>
        <lane id="L6_2" index="2" speed="13.89" length="100.14" shape="998.63,-20.48 998.68,-140.62"/>
    </edge>
    <edge id="L7" from="J13" to="J10" priority="-1" length="100.14">
        <lane id="L7_0" index="0" speed="13.89" length="100.14" shape="1008.28,-140.61 1008.23,-20.47"/>
        <lane id="L7_1" index="1" speed="13.89" length="100.14" shape="1005.08,-140.61 1005.03,-20.47"/>
        <lane id="L7_2" index="2" speed="13.89" length="100.14" shape="1001.88,-140.61 1001.83,-20.48"/>
    </edge>
    <edge id="L8" from="6" to="3" priority="2" length="250.00" shape="1000.00,356.83 1000.18,0.16">
        <lane id="L8_0" index="0" speed="13.89" length="250.00" shape="992.00,356.83 992.17,13.79"/>
        <lane id="L8_1" index="1" speed="13.89" length="250.00" shape="995.20,356.83 995.37,13.79"/>
        <lane id="L8_2" index="2" speed="13.89" length="250.00" shape="998.40,356.83 998.57,13.79"/>
    </edge>
    <edge id="L9" from="3" to="6" priority="2" length="250.00" shape="1000.18,0.16 1000.00,356.83">
        <lane id="L9_0" index="0" speed="13.89" length="250.00" shape="1008.17,13.79 1008.00,356.83"/>
        <lane id="L9_1" index="1" speed="13.89" length="250.00" shape="1004.97,13.79 1004.80,356.83"/>
        <lane id="L9_2" index="2" speed="13.89" length="250.00" shape="1001.77,13.79 1001.60,356.83"/>
    </edge>

    <tlLogic id="3" type="static" programID="0" offset="0">
        <phase duration="40" state="GGGGGrrrrrGGGG"/>
        <phase duration="8"  state="GyyyGrrrrrGGGG"/>
        <phase duration="40" state="GrrrGGGGGGGGGG"/>
        <phase duration="8"  state="GrrrGyyyyyGGGy"/>
        <phase duration="40" state="GrrrGrrrrrGGGG"/>
    </tlLogic>
    <tlLogic id="J10" type="static" programID="0" offset="0">
        <phase duration="40" state="rrrrrrGGGGGGGG"/>
        <phase duration="8"  state="rrrrrryyyyGGGG"/>
        <phase duration="40" state="rrrrrrrrrrGGGG"/>
        <phase duration="40" state="GGGGGGrrrrGGGG"/>
        <phase duration="8"  state="yyyyyyrrrrGGGG"/>
    </tlLogic>
    <tlLogic id="J13" type="static" programID="0" offset="0">
        <phase duration="40" state="GGGGGGGGrrrrrr"/>
        <phase duration="8"  state="yyyyGGGGrrrrrr"/>
        <phase duration="40" state="rrrrGGGGrrrrrr"/>
        <phase duration="40" state="rrrrGGGGGGGGGG"/>
        <phase duration="8"  state="rrrrGGGGyyyyyy"/>
    </tlLogic>
    <tlLogic id="J16" type="static" programID="0" offset="0">
        <phase duration="40" state="GGGGGrrrrrGGGG"/>
        <phase duration="8"  state="GyyyGrrrrrGGGG"/>
        <phase duration="40" state="GrrrGGGGGGGGGG"/>
        <phase duration="8"  state="GrrrGyyyyyGGGG"/>
        <phase duration="40" state="GrrrGrrrrrGGGG"/>
    </tlLogic>

    <junction id="2" type="priority" x="730.78" y="0.87" incLanes="L10_0 L10_1 L10_2" intLanes=":2_0_0 :2_0_1 :2_0_2" shape="730.95,10.47 730.92,0.87 730.64,0.87 730.63,10.47">
        <request index="0" response="000" foes="000" cont="0"/>
        <request index="1" response="000" foes="000" cont="0"/>
        <request index="2" response="000" foes="000" cont="0"/>
    </junction>
    <junction id="3" type="traffic_light" x="1000.00" y="0.16" incLanes="L1_0 L1_1 L1_2 -E16_0 -E16_1 -E16_2 L8_0 L8_1 L8_2" intLanes=":3_0_0 :3_1_0 :3_1_1 :3_1_2 :3_4_0 :3_4_1 :3_6_0 :3_6_1 :3_6_2 :3_9_0 :3_10_0 :3_11_0 :3_11_1 :3_11_2" shape="1013.78,9.76 1013.78,0.16 1011.56,-0.29 1010.78,-0.84 1010.23,-1.62 1009.90,-2.62 1009.79,-3.84 990.59,-3.90 990.14,-1.63 989.58,-0.83 988.79,-0.26 987.78,0.08 986.55,0.20 986.58,9.80 988.80,10.23 989.57,10.79 990.13,11.56 990.46,12.56 990.57,13.79 1009.77,13.80 1010.22,11.55 1010.78,10.77 1011.56,10.21 1012.56,9.87">
        <request index="0"  response="00000000000000" foes="00000111000000" cont="0"/>
        <request index="1"  response="00000000000000" foes="11111111000000" cont="0"/>
        <request index="2"  response="00000000000000" foes="11111111000000" cont="0"/>
        <request index="3"  response="00000000000000" foes="11111111000000" cont="0"/>
        <request index="4"  response="00000000000000" foes="11101111000000" cont="0"/>
        <request index="5"  response="00000000000000" foes="11101111000000" cont="0"/>
        <request index="6"  response="00000000111111" foes="00000000111111" cont="0"/>
        <request index="7"  response="00000000111111" foes="00000000111111" cont="0"/>
        <request index="8"  response="00000000111111" foes="00000000111111" cont="0"/>
        <request index="9"  response="11100000111110" foes="11100000111110" cont="0"/>
        <request index="10" response="00000000001110" foes="00000000001110" cont="0"/>