<?xml version="1.0" encoding="UTF-8"?>

<!-- generated on 2025-03-22 23:19:32 by Eclipse SUMO netedit Version 1.21.0
<neteditConfiguration xmlns:xsi="http://www.w3.org/2001/XMLSchema-instance" xsi:noNamespaceSchemaLocation="http://sumo.dlr.de/xsd/neteditConfiguration.xsd">

    <input>
        <sumocfg-file value="C:\Users\Nguyen Minh Quan\OneDrive\OneDrive - student.vgu.edu.vn\RMIT_Feb\DirectoryName\22302025\Nguyen-Van-Linh-SUMO\simpleT.sumocfg"/>
        <additional-files value=""/>
        <route-files value="C:\Users\Nguyen Minh Quan\OneDrive\OneDrive - student.vgu.edu.vn\RMIT_Feb\DirectoryName\22302025\Nguyen-Van-Linh-SUMO\simpleT.rou.xml"/>
        <sumo-net-file value="C:\Users\Nguyen Minh Quan\OneDrive\OneDrive - student.vgu.edu.vn\RMIT_Feb\DirectoryName\22302025\Nguyen-Van-Linh-SUMO\simpleT.net.xml"/>
    </input>

    <output>
        <output-file value="C:\Users\Nguyen Minh Quan\OneDrive\OneDrive - student.vgu.edu.vn\RMIT_Feb\DirectoryName\22302025\Nguyen-Van-Linh-SUMO\simpleT.net.xml"/>
    </output>

    <processing>
        <geometry.min-radius.fix.railways value="false"/>
        <geometry.max-grade.fix value="false"/>
        <offset.disable-normalization value="true"/>
        <lefthand value="0"/>
    </processing>

    <junctions>
        <no-turnarounds value="true"/>
        <junctions.corner-detail value="5"/>
        <junctions.limit-turn-speed value="5.50"/>
        <rectangular-lane-cut value="0"/>
    </junctions>

    <pedestrian>
        <walkingareas value="0"/>
    </pedestrian>

    <netedit>
        <ignore.routeelements value="false"/>
    </netedit>

</neteditConfiguration>
-->

<net version="1.20" junctionCornerDetail="5" limitTurnSpeed="5.50" xmlns:xsi="http://www.w3.org/2001/XMLSchema-instance" xsi:noNamespaceSchemaLocation="http://sumo.dlr.de/xsd/net_file.xsd">

    <location netOffset="0.00,0.00" convBoundary="440.27,-205.26,2000.00,1000.00" origBoundary="-10000000000.00,-10000000000.00,10000000000.00,10000000000.00" projParameter="!"/>

    <edge id=":2_0" function="internal">
        <lane id=":2_0_0" index="0" speed="13.89" length="0.30" shape="730.94,8.87 730.63,8.87"/>
        <lane id=":2_0_1" index="1" speed="13.89" length="0.30" shape="730.93,5.67 730.63,5.67"/>
        <lane id=":2_0_2" index="2" speed="13.89" length="0.30" shape="730.92,2.47 730.64,2.47"/>
    </edge>
    <edge id=":3_0" function="internal">
        <lane id=":3_0_0" index="0" speed="6.52" length="9.06" shape="1013.78,8.16 1011.33,8.51 1009.58,9.57 1008.53,11.33 1008.18,13.79"/>
    </edge>
    <edge id=":3_1" function="internal">
        <lane id=":3_1_0" index="0" speed="13.89" length="27.22" shape="1013.78,8.16 986.57,8.20"/>
        <lane id=":3_1_1" index="1" speed="13.89" length="27.22" shape="1013.78,4.96 986.57,5.00"/>
        <lane id=":3_1_2" index="2" speed="13.89" length="27.22" shape="1013.78,1.76 986.56,1.80"/>
    </edge>
    <edge id=":3_4" function="internal">
        <lane id=":3_4_0" index="0" speed="9.43" length="20.15" shape="1013.78,1.76 1005.73,1.45 999.98,0.50 996.53,-1.07 995.39,-3.26"/>
        <lane id=":3_4_1" index="1" speed="8.73" length="17.14" shape="1013.78,1.76 1007.13,1.45 1002.38,0.51 999.53,-1.06 998.59,-3.25"/>
    </edge>
    <edge id=":3_6" function="internal">
        <lane id=":3_6_0" index="0" speed="13.89" length="17.02" shape="1008.19,-3.22 1008.18,13.79"/>
        <lane id=":3_6_1" index="1" speed="13.89" length="17.02" shape="1004.99,-3.23 1004.98,13.79"/>
        <lane id=":3_6_2" index="2" speed="13.89" length="17.02" shape="1001.79,-3.24 1001.78,13.79"/>
    </edge>
    <edge id=":3_9" function="internal">
        <lane id=":3_9_0" index="0" speed="8.77" length="17.17" shape="1001.79,-3.24 1000.83,-1.05 997.97,0.52 993.22,1.47 986.56,1.80"/>
    </edge>
    <edge id=":3_10" function="internal">
        <lane id=":3_10_0" index="0" speed="6.50" length="9.03" shape="992.18,13.79 991.83,11.33 990.78,9.59 989.03,8.54 986.57,8.20"/>
    </edge>
    <edge id=":3_11" function="internal">
        <lane id=":3_11_0" index="0" speed="13.89" length="17.05" shape="992.18,13.79 992.19,-3.27"/>
        <lane id=":3_11_1" index="1" speed="13.89" length="17.05" shape="995.38,13.79 995.39,-3.26"/>
        <lane id=":3_11_2" index="2" speed="13.89" length="17.05" shape="998.58,13.79 998.59,-3.25"/>
    </edge>
    <edge id=":J10_0" function="internal">
        <lane id=":J10_0_0" index="0" speed="6.38" length="8.62" shape="1013.83,-8.48 1011.37,-8.16 1009.61,-7.21 1008.55,-5.63 1008.19,-3.42"/>
    </edge>
    <edge id=":J10_1" function="internal">
        <lane id=":J10_1_0" index="0" disallow="motorcycle moped bicycle aircraft wheelchair scooter drone custom1 custom2" speed="13.89" length="27.24" shape="1013.83,-8.48 986.60,-8.45"/>
        <lane id=":J10_1_1" index="1" disallow="motorcycle moped bicycle aircraft wheelchair scooter drone custom1 custom2" speed="13.89" length="27.24" shape="1013.83,-11.68 986.59,-11.65"/>
        <lane id=":J10_1_2" index="2" disallow="motorcycle moped bicycle aircraft wheelchair scooter drone custom1 custom2" speed="13.89" length="27.24" shape="1013.83,-14.88 986.59,-14.85"/>
    </edge>
    <edge id=":J10_4" function="internal">
        <lane id=":J10_4_0" index="0" speed="9.52" length="20.49" shape="1013.83,-14.88 1005.78,-15.22 1000.03,-16.27 996.57,-18.02 995.42,-20.47"/>
        <lane id=":J10_4_1" index="1" speed="8.84" length="17.51" shape="1013.83,-14.88 1007.18,-15.22 1002.43,-16.27 999.57,-18.03 998.62,-20.48"/>
    </edge>
    <edge id=":J10_6" function="internal">
        <lane id=":J10_6_0" index="0" speed="13.89" length="17.07" shape="1008.22,-20.52 1008.19,-3.42"/>
        <lane id=":J10_6_1" index="1" speed="13.89" length="17.07" shape="1005.02,-20.51 1004.99,-3.43"/>
        <lane id=":J10_6_2" index="2" speed="13.89" length="17.07" shape="1001.82,-20.49 1001.79,-3.44"/>
    </edge>
    <edge id=":J10_9" function="internal">
        <lane id=":J10_9_0" index="0" disallow="motorcycle moped bicycle aircraft wheelchair scooter drone custom1 custom2" speed="8.83" length="17.55" shape="1001.82,-20.49 1000.87,-18.03 998.02,-16.27 993.26,-15.21 986.59,-14.85"/>
    </edge>
    <edge id=":J10_10" function="internal">
        <lane id=":J10_10_0" index="0" disallow="motorcycle moped bicycle aircraft wheelchair scooter drone custom1 custom2" speed="6.34" length="8.54" shape="992.19,-3.47 991.85,-5.65 990.80,-7.21 989.05,-8.14 986.60,-8.45"/>
    </edge>
    <edge id=":J10_11" function="internal">
        <lane id=":J10_11_0" index="0" speed="13.89" length="17.01" shape="992.19,-3.47 992.22,-20.46"/>
        <lane id=":J10_11_1" index="1" speed="13.89" length="17.01" shape="995.39,-3.46 995.42,-20.47"/>
        <lane id=":J10_11_2" index="2" speed="13.89" length="17.01" shape="998.59,-3.45 998.62,-20.48"/>
    </edge>
    <edge id=":J11_0" function="internal">
        <lane id=":J11_0_0" index="0" disallow="motorcycle moped bicycle aircraft wheelchair scooter drone custom1 custom2" speed="13.89" length="0.32" shape="733.78,-8.06 733.24,-8.08"/>
        <lane id=":J11_0_1" index="1" disallow="motorcycle moped bicycle aircraft wheelchair scooter drone custom1 custom2" speed="13.89" length="0.32" shape="733.78,-11.26 733.45,-11.27"/>
        <lane id=":J11_0_2" index="2" disallow="motorcycle moped bicycle aircraft wheelchair scooter drone custom1 custom2" speed="13.89" length="0.32" shape="733.77,-14.46 733.66,-14.46"/>
    </edge>
    <edge id=":J13_0" function="internal">
        <lane id=":J13_0_0" index="0" speed="13.89" length="17.75" shape="991.94,-98.48 992.02,-116.26"/>
        <lane id=":J13_0_1" index="1" speed="13.89" length="17.75" shape="995.14,-98.50 995.22,-116.24"/>
        <lane id=":J13_0_2" index="2" speed="13.89" length="17.75" shape="998.34,-98.51 998.42,-116.22"/>
    </edge>
    <edge id=":J13_3" function="internal">
        <lane id=":J13_3_0" index="0" disallow="pedestrian motorcycle moped bicycle aircraft wheelchair scooter drone custom1 custom2" speed="8.83" length="2.14" shape="998.34,-98.51 999.11,-100.51"/>
    </edge>
    <edge id=":J13_14" function="internal">
        <lane id=":J13_14_0" index="0" disallow="pedestrian motorcycle moped bicycle aircraft wheelchair scooter drone custom1 custom2" speed="8.83" length="15.43" shape="999.11,-100.51 999.29,-100.98 1002.15,-102.74 1006.91,-103.79 1013.59,-104.14"/>
    </edge>
    <edge id=":J13_4" function="internal">
        <lane id=":J13_4_0" index="0" disallow="pedestrian motorcycle moped bicycle aircraft wheelchair scooter drone custom1 custom2" speed="6.48" length="8.99" shape="1008.02,-116.11 1008.36,-113.67 1009.40,-111.94 1011.14,-110.89 1013.59,-110.54"/>
    </edge>
    <edge id=":J13_5" function="internal">
        <lane id=":J13_5_0" index="0" speed="13.89" length="17.60" shape="1008.02,-116.11 1007.94,-98.54"/>
        <lane id=":J13_5_1" index="1" speed="13.89" length="17.60" shape="1004.82,-116.13 1004.74,-98.53"/>
        <lane id=":J13_5_2" index="2" speed="13.89" length="17.60" shape="1001.62,-116.15 1001.54,-98.52"/>
    </edge>
    <edge id=":J13_8" function="internal">
        <lane id=":J13_8_0" index="0" speed="6.59" length="9.22" shape="986.31,-110.52 988.80,-110.88 990.58,-111.96 991.65,-113.76 992.02,-116.26"/>
    </edge>
    <edge id=":J13_9" function="internal">
        <lane id=":J13_9_0" index="0" disallow="pedestrian motorcycle moped bicycle aircraft wheelchair scooter drone custom1 custom2" speed="13.89" length="27.27" shape="986.31,-110.52 1013.59,-110.54"/>
        <lane id=":J13_9_1" index="1" disallow="pedestrian motorcycle moped bicycle aircraft wheelchair scooter drone custom1 custom2" speed="13.89" length="27.27" shape="986.32,-107.32 1013.59,-107.34"/>
        <lane id=":J13_9_2" index="2" disallow="pedestrian motorcycle moped bicycle aircraft wheelchair scooter drone custom1 custom2" speed="13.89" length="27.27" shape="986.33,-104.12 1013.59,-104.14"/>
    </edge>
    <edge id=":J13_12" function="internal">
        <lane id=":J13_12_0" index="0" speed="9.52" length="20.50" shape="986.33,-104.12 994.38,-103.78 1000.13,-102.74 1003.59,-100.99 1004.74,-98.53"/>
        <lane id=":J13_12_1" index="1" speed="8.84" length="17.52" shape="986.33,-104.12 992.98,-103.78 997.73,-102.74 1000.59,-100.98 1001.54,-98.52"/>
    </edge>
    <edge id=":J16_0" function="internal">
        <lane id=":J16_0_0" index="0" speed="6.54" length="9.11" shape="1008.02,-133.96 1008.38,-131.49 1009.44,-129.72 1011.20,-128.66 1013.66,-128.30"/>
    </edge>
    <edge id=":J16_1" function="internal">
        <lane id=":J16_1_0" index="0" speed="13.89" length="17.73" shape="1008.02,-133.96 1008.02,-116.21"/>
        <lane id=":J16_1_1" index="1" speed="13.89" length="17.73" shape="1004.82,-133.96 1004.82,-116.23"/>
        <lane id=":J16_1_2" index="2" speed="13.89" length="17.73" shape="1001.62,-133.95 1001.62,-116.25"/>
    </edge>
    <edge id=":J16_4" function="internal">
        <lane id=":J16_4_0" index="0" speed="6.50" length="9.03" shape="986.43,-128.33 988.88,-128.68 990.63,-129.73 991.68,-131.48 992.02,-133.93"/>
    </edge>
    <edge id=":J16_5" function="internal">
        <lane id=":J16_5_0" index="0" speed="13.89" length="27.23" shape="986.43,-128.33 1013.66,-128.30"/>
        <lane id=":J16_5_1" index="1" speed="13.89" length="27.23" shape="986.43,-125.13 1013.66,-125.10"/>
        <lane id=":J16_5_2" index="2" speed="13.89" length="27.23" shape="986.42,-121.93 1013.65,-121.90"/>
    </edge>
    <edge id=":J16_8" function="internal">
        <lane id=":J16_8_0" index="0" speed="9.50" length="20.54" shape="986.42,-121.93 994.49,-121.57 1000.24,-120.50 1003.69,-118.72 1004.82,-116.23"/>
        <lane id=":J16_8_1" index="1" speed="8.82" length="17.55" shape="986.42,-121.93 993.09,-121.57 997.84,-120.50 1000.69,-118.73 1001.62,-116.25"/>
    </edge>
    <edge id=":J16_10" function="internal">
        <lane id=":J16_10_0" index="0" speed="13.89" length="17.59" shape="992.02,-116.37 992.02,-133.93"/>
        <lane id=":J16_10_1" index="1" speed="13.89" length="17.59" shape="995.22,-116.34 995.22,-133.94"/>
        <lane id=":J16_10_2" index="2" speed="13.89" length="17.59" shape="998.42,-116.32 998.42,-133.94"/>
    </edge>
    <edge id=":J16_13" function="internal">
        <lane id=":J16_13_0" index="0" speed="8.85" length="2.08" shape="998.42,-116.32 999.19,-118.25"/>
    </edge>
    <edge id=":J16_14" function="internal">
        <lane id=":J16_14_0" index="0" speed="8.85" length="15.43" shape="999.19,-118.25 999.39,-118.77 1002.25,-120.52 1007.00,-121.56 1013.65,-121.90"/>
    </edge>
    <edge id=":J5_0" function="internal">
        <lane id=":J5_0_0" index="0" speed="13.89" length="3.02" shape="528.32,-21.58 525.26,-21.71"/>
        <lane id=":J5_0_1" index="1" speed="13.89" length="3.02" shape="528.27,-24.79 525.26,-24.91"/>
        <lane id=":J5_0_2" index="2" speed="13.89" length="3.02" shape="528.23,-28.00 525.25,-28.11"/>
    </edge>
    <edge id=":J5_3" function="internal">
        <lane id=":J5_3_0" index="0" speed="13.89" length="3.01" shape="528.31,-21.73 525.26,-21.71"/>
        <lane id=":J5_3_1" index="1" speed="13.89" length="3.01" shape="528.27,-24.93 525.26,-24.91"/>
        <lane id=":J5_3_2" index="2" speed="13.89" length="3.01" shape="528.23,-28.13 525.25,-28.11"/>
    </edge>

    <edge id="-E15" from="J16" to="J13" priority="-1">
        <lane id="-E15_0" index="0" speed="13.89" length="0.10" shape="1008.02,-116.21 1008.02,-116.11"/>
        <lane id="-E15_1" index="1" speed="13.89" length="0.10" shape="1004.82,-116.23 1004.82,-116.13"/>
        <lane id="-E15_2" index="2" speed="13.89" length="0.10" shape="1001.62,-116.25 1001.62,-116.15"/>
    </edge>
    <edge id="-E16" from="J10" to="3" priority="-1" shape="1000.23,-16.47 1000.18,0.16">
        <lane id="-E16_0" index="0" speed="13.89" length="0.20" shape="1008.19,-3.42 1008.19,-3.22"/>
        <lane id="-E16_1" index="1" speed="13.89" length="0.20" shape="1004.99,-3.43 1004.99,-3.23"/>
        <lane id="-E16_2" index="2" speed="13.89" length="0.20" shape="1001.79,-3.44 1001.79,-3.24"/>
    </edge>
    <edge id="E0" from="J0" to="J5" priority="-1">
        <lane id="E0_0" index="0" speed="13.89" length="838.81" shape="1367.04,-33.45 528.31,-21.73"/>
        <lane id="E0_1" index="1" speed="13.89" length="838.81" shape="1367.00,-36.65 528.27,-24.93"/>
        <lane id="E0_2" index="2" speed="13.89" length="838.81" shape="1366.95,-39.85 528.23,-28.13"/>
    </edge>
    <edge id="E1" from="J2" to="J3" priority="-1">
        <lane id="E1_0" index="0" speed="13.89" length="293.73" shape="849.90,-80.65 1143.63,-80.17"/>
    </edge>
    <edge id="E15" from="J13" to="J16" priority="-1">
        <lane id="E15_0" index="0" speed="13.89" length="0.10" shape="992.02,-116.26 992.02,-116.37"/>
        <lane id="E15_1" index="1" speed="13.89" length="0.10" shape="995.22,-116.24 995.22,-116.34"/>
        <lane id="E15_2" index="2" speed="13.89" length="0.10" shape="998.42,-116.22 998.42,-116.32"/>
    </edge>
    <edge id="E16" from="3" to="J10" priority="-1" shape="1000.18,0.16 1000.23,-16.47">
        <lane id="E16_0" index="0" speed="13.89" length="0.20" shape="992.19,-3.27 992.19,-3.47"/>
        <lane id="E16_1" index="1" speed="13.89" length="0.20" shape="995.39,-3.26 995.39,-3.46"/>
        <lane id="E16_2" index="2" speed="13.89" length="0.20" shape="998.59,-3.25 998.59,-3.45"/>
    </edge>
    <edge id="E4" from="2" to="J6" priority="-1">
        <lane id="E4_0" index="0" speed="13.89" length="288.80" shape="730.63,8.87 441.83,8.55"/>
        <lane id="E4_1" index="1" speed="13.89" length="288.80" shape="730.63,5.67 441.83,5.35"/>
        <lane id="E4_2" index="2" speed="13.89" length="288.80" shape="730.64,2.47 441.84,2.15"/>
    </edge>
    <edge id="E5" from="J11" to="J5" priority="-1">
        <lane id="E5_0" index="0" speed="13.89" length="205.63" shape="733.24,-8.08 528.32,-21.58"/>
        <lane id="E5_1" index="1" speed="13.89" length="205.63" shape="733.45,-11.27 528.27,-24.79"/>
        <lane id="E5_2" index="2" speed="13.89" length="205.63" shape="733.66,-14.46 528.23,-28.00"/>
    </edge>
    <edge id="E6" from="J5" to="J7" priority="-1">
        <lane id="E6_0" index="0" speed="13.89" length="84.98" shape="525.26,-21.71 440.28,-21.58"/>
        <lane id="E6_1" index="1" speed="13.89" length="84.98" shape="525.26,-24.91 440.28,-24.78"/>
        <lane id="E6_2" index="2" speed="13.89" length="84.98" shape="525.25,-28.11 440.27,-27.98"/>
    </edge>
    <edge id="L1" from="4" to="3" priority="3" length="986.40" shape="2000.00,0.00 1000.18,0.16">
        <lane id="L1_0" index="0" speed="13.89" length="986.40" shape="2000.00,8.00 1013.78,8.16"/>
        <lane id="L1_1" index="1" speed="13.89" length="986.40" shape="2000.00,4.80 1013.78,4.96"/>
        <lane id="L1_2" index="2" speed="13.89" length="986.40" shape="2000.00,1.60 1013.78,1.76"/>
    </edge>
    <edge id="L10" from="3" to="2" priority="3" shape="1000.18,0.16 730.78,0.87">
        <lane id="L10_0" index="0" speed="13.89" length="255.63" shape="986.57,8.20 730.94,8.87"/>
        <lane id="L10_1" index="1" speed="13.89" length="255.63" shape="986.57,5.00 730.93,5.67"/>
        <lane id="L10_2" index="2" speed="13.89" length="255.63" shape="986.56,1.80 730.92,2.47"/>
    </edge>
    <edge id="L11" from="J10" to="J11" priority="-1">
        <lane id="L11_0" index="0" disallow="motorcycle moped bicycle aircraft wheelchair scooter drone custom1 custom2" speed="13.89" length="252.82" shape="986.60,-8.45 733.78,-8.06"/>
        <lane id="L11_1" index="1" disallow="motorcycle moped bicycle aircraft wheelchair scooter drone custom1 custom2" speed="13.89" length="252.82" shape="986.59,-11.65 733.78,-11.26"/>
        <lane id="L11_2" index="2" disallow="motorcycle moped bicycle aircraft wheelchair scooter drone custom1 custom2" speed="13.89" length="252.82" shape="986.59,-14.85 733.77,-14.46"/>
    </edge>
    <edge id="L12" from="J13" to="J14" priority="-1">
        <lane id="L12_0" index="0" disallow="pedestrian motorcycle moped bicycle aircraft wheelchair scooter drone custom1 custom2" speed="13.89" length="136.26" shape="1013.59,-110.54 1149.85,-110.48"/>
        <lane id="L12_1" index="1" disallow="pedestrian motorcycle moped bicycle aircraft wheelchair scooter drone custom1 custom2" speed="13.89" length="136.26" shape="1013.59,-107.34 1149.85,-107.28"/>
        <lane id="L12_2" index="2" disallow="pedestrian motorcycle moped bicycle aircraft wheelchair scooter drone custom1 custom2" speed="13.89" length="136.26" shape="1013.59,-104.14 1149.85,-104.08"/>
    </edge>
    <edge id="L13" from="J16" to="J18" priority="-1">
        <lane id="L13_0" index="0" speed="13.89" length="71.31" shape="992.02,-133.93 991.88,-205.24"/>
        <lane id="L13_1" index="1" speed="13.89" length="71.31" shape="995.22,-133.94 995.08,-205.25"/>
        <lane id="L13_2" index="2" speed="13.89" length="71.31" shape="998.42,-133.94 998.28,-205.26"/>
    </edge>
    <edge id="L14" from="J16" to="J17" priority="-1">
        <lane id="L14_0" index="0" speed="13.89" length="127.55" shape="1013.66,-128.30 1141.21,-128.09"/>
        <lane id="L14_1" index="1" speed="13.89" length="127.55" shape="1013.66,-125.10 1141.21,-124.89"/>
        <lane id="L14_2" index="2" speed="13.89" length="127.55" shape="1013.65,-121.90 1141.20,-121.69"/>
    </edge>
    <edge id="L2" from="J9" to="J10" priority="-1">
        <lane id="L2_0" index="0" speed="13.89" length="352.74" shape="1366.57,-8.61 1013.83,-8.48"/>
        <lane id="L2_1" index="1" speed="13.89" length="352.74" shape="1366.57,-11.81 1013.83,-11.68"/>
        <lane id="L2_2" index="2" speed="13.89" length="352.74" shape="1366.57,-15.01 1013.83,-14.88"/>
    </edge>
    <edge id="L3" from="J12" to="J13" priority="-1">
        <lane id="L3_0" index="0" speed="13.89" length="145.94" shape="840.37,-110.17 986.31,-110.52"/>
        <lane id="L3_1" index="1" speed="13.89" length="145.94" shape="840.38,-106.97 986.32,-107.32"/>
        <lane id="L3_2" index="2" speed="13.89" length="145.94" shape="840.39,-103.77 986.33,-104.12"/>
    </edge>
    <edge id="L4" from="J15" to="J16" priority="-1">
        <lane id="L4_0" index="0" speed="13.89" length="141.75" shape="844.68,-128.44 986.43,-128.33"/>
        <lane id="L4_1" index="1" speed="13.89" length="141.75" shape="844.67,-125.24 986.43,-125.13"/>
        <lane id="L4_2" index="2" speed="13.89" length="141.75" shape="844.67,-122.04 986.42,-121.93"/>
    </edge>
    <edge id="L5" from="J18" to="J16" priority="-1">
        <lane id="L5_0" index="0" speed="13.89" length="71.31" shape="1007.88,-205.28 1008.02,-133.96"/>
        <lane id="L5_1" index="1" speed="13.89" length="71.31" shape="1004.68,-205.27 1004.82,-133.96"/>
        <lane id="L5_2" index="2" speed="13.89" length="71.31" shape="1001.48,-205.26 1001.62,-133.95"/>
    </edge>
    <edge id="L6" from="J10" to="J13" priority="-1">
        <lane id="L6_0" index="0" speed="13.89" length="78.02" shape="992.22,-20.46 991.94,-98.48"/>
        <lane id="L6_1" index="1" speed="13.89" length="78.02" shape="995.42,-20.47 995.14,-98.50"/>
        <lane id="L6_2" index="2" speed="13.89" length="78.02" shape="998.62,-20.48 998.34,-98.51"/>
    </edge>
    <edge id="L7" from="J13" to="J10" priority="-1">
        <lane id="L7_0" index="0" speed="13.89" length="78.02" shape="1007.94,-98.54 1008.22,-20.52"/>
        <lane id="L7_1" index="1" speed="13.89" length="78.02" shape="1004.74,-98.53 1005.02,-20.51"/>
        <lane id="L7_2" index="2" speed="13.89" length="78.02" shape="1001.54,-98.52 1001.82,-20.49"/>
    </edge>
    <edge id="L8" from="6" to="3" priority="2" shape="1000.00,1000.00 1000.18,0.16">
        <lane id="L8_0" index="0" speed="13.89" length="986.21" shape="992.00,1000.00 992.18,13.79"/>
        <lane id="L8_1" index="1" speed="13.89" length="986.21" shape="995.20,1000.00 995.38,13.79"/>
        <lane id="L8_2" index="2" speed="13.89" length="986.21" shape="998.40,1000.00 998.58,13.79"/>
    </edge>
    <edge id="L9" from="3" to="6" priority="2" shape="1000.18,0.16 1000.00,1000.00">
        <lane id="L9_0" index="0" speed="13.89" length="986.21" shape="1008.18,13.79 1008.00,1000.00"/>
        <lane id="L9_1" index="1" speed="13.89" length="986.21" shape="1004.98,13.79 1004.80,1000.00"/>
        <lane id="L9_2" index="2" speed="13.89" length="986.21" shape="1001.78,13.79 1001.60,1000.00"/>
    </edge>

    <tlLogic id="3" type="static" programID="0" offset="0">
        <phase duration="100" state="GGGGrrrrrrGGGG"/>
        <phase duration="100" state="rrrrGGGGGGGGGG"/>
        <phase duration="50" state="rrrrrrrrrrGGGG"/>
    </tlLogic>
    <tlLogic id="J10" type="static" programID="0" offset="0">
        <phase duration="100" state="rrrrrrGGGGGGGG"/>
        <phase duration="100" state="rrrrrrrrrrGGGG"/>
        <phase duration="50" state="GGGGGGrrrrGrrr"/>
    </tlLogic>

    <junction id="2" type="priority" x="730.78" y="0.87" incLanes="L10_0 L10_1 L10_2" intLanes=":2_0_0 :2_0_1 :2_0_2" shape="730.95,10.47 730.92,0.87 730.64,0.87 730.63,10.47">
        <request index="0" response="000" foes="000" cont="0"/>
        <request index="1" response="000" foes="000" cont="0"/>
        <request index="2" response="000" foes="000" cont="0"/>
    </junction>
    <junction id="3" type="traffic_light" x="1000.00" y="0.16" incLanes="L1_0 L1_1 L1_2 -E16_0 -E16_1 -E16_2 L8_0 L8_1 L8_2" intLanes=":3_0_0 :3_1_0 :3_1_1 :3_1_2 :3_4_0 :3_4_1 :3_6_0 :3_6_1 :3_6_2 :3_9_0 :3_10_0 :3_11_0 :3_11_1 :3_11_2" shape="1013.78,9.76 1013.78,0.16 1011.56,-0.29 1010.78,-0.84 1010.23,-1.62 1009.90,-2.62 1009.79,-3.84 990.59,-3.90 990.14,-1.63 989.58,-0.83 988.79,-0.26 987.78,0.08 986.55,0.20 986.58,9.80 988.80,10.23 989.58,10.79 990.13,11.56 990.47,12.56 990.58,13.79 1009.78,13.79 1010.22,11.55 1010.78,10.77 1011.56,10.21 1012.56,9.87">
        <request index="0"  response="00000000000000" foes="00000111000000" cont="0"/>
        <request index="1"  response="00000000000000" foes="11111111000000" cont="0"/>
        <request index="2"  response="00000000000000" foes="11111111000000" cont="0"/>
        <request index="3"  response="00000000000000" foes="11111111000000" cont="0"/>
        <request index="4"  response="00000000000000" foes="11101111000000" cont="0"/>
        <request index="5"  response="00000000000000" foes="11101111000000" cont="0"/>
        <request index="6"  response="00000000111111" foes="00000000111111" cont="0"/>
        <request index="7"  response="00000000111111" foes="00000000111111" cont="0"/>
        <request index="8"  response="00000000111111" foes="00000000111111" cont="0"/>
        <request index="9"  response="11100000111110" foes="11100000111110" cont="0"/>
        <request index="10" response="00000000001110" foes="00000000001110" cont="0"/>
        <request index="11" response="00000000111110" foes="00001000111110" cont="0"/>
        <request index="12" response="00000000111110" foes="00001000111110" cont="0"/>
        <request index="13" response="00000000111110" foes="00001000111110" cont="0"/>
    </junction>
    <junction id="4" type="dead_end" x="2000.00" y="0.00" incLanes="" intLanes="" shape="2000.00,0.00 2000.00,9.60"/>
    <junction id="6" type="dead_end" x="1000.00" y="1000.00" incLanes="L9_0 L9_1 L9_2" intLanes="" shape="1000.00,1000.00 1009.60,1000.00 1000.00,1000.00"/>
    <junction id="J0" type="dead_end" x="1366.93" y="-41.45" incLanes="" intLanes="" shape="1366.93,-41.45 1367.06,-31.85"/>
    <junction id="J10" type="traffic_light" x="1000.23" y="-16.47" incLanes="L2_0 L2_1 L2_2 L7_0 L7_1 L7_2 E16_0 E16_1 E16_2" intLanes=":J10_0_0 :J10_1_0 :J10_1_1 :J10_1_2 :J10_4_0 :J10_4_1 :J10_6_0 :J10_6_1 :J10_6_2 :J10_9_0 :J10_10_0 :J10_11_0 :J10_11_1 :J10_11_2" shape="1013.83,-6.88 1013.83,-16.48 1011.61,-16.92 1010.83,-17.49 1010.27,-18.27 1009.93,-19.29 1009.82,-20.52 990.62,-20.46 990.17,-18.23 989.62,-17.45 988.83,-16.90 987.82,-16.56 986.59,-16.45 986.60,-6.85 988.82,-6.41 989.60,-5.85 990.15,-5.08 990.48,-4.08 990.59,-2.86 1009.79,-2.80 1010.24,-5.06 1010.81,-5.85 1011.59,-6.42 1012.60,-6.76">
        <request index="0"  response="00000111000000" foes="00000111000000" cont="0"/>
        <request index="1"  response="11111111000000" foes="11111111000000" cont="0"/>
        <request index="2"  response="11111111000000" foes="11111111000000" cont="0"/>
        <request index="3"  response="11111111000000" foes="11111111000000" cont="0"/>
        <request index="4"  response="11101111000000" foes="11101111000000" cont="0"/>
        <request index="5"  response="11101111000000" foes="11101111000000" cont="0"/>
        <request index="6"  response="00000000000000" foes="00000000111111" cont="0"/>
        <request index="7"  response="00000000000000" foes="00000000111111" cont="0"/>
        <request index="8"  response="00000000000000" foes="00000000111111" cont="0"/>
        <request index="9"  response="11100000000000" foes="11100000111110" cont="0"/>
        <request index="10" response="00000000000000" foes="00000000001110" cont="0"/>
        <request index="11" response="00000000000000" foes="00001000111110" cont="0"/>
        <request index="12" response="00000000000000" foes="00001000111110" cont="0"/>
        <request index="13" response="00000000000000" foes="00001000111110" cont="0"/>
    </junction>
    <junction id="J11" type="priority" x="733.77" y="-16.06" incLanes="L11_0 L11_1 L11_2" intLanes=":J11_0_0 :J11_0_1 :J11_0_2" shape="733.78,-6.46 733.77,-16.06 733.14,-6.48">
        <request index="0" response="000" foes="000" cont="0"/>
        <request index="1" response="000" foes="000" cont="0"/>
        <request index="2" response="000" foes="000" cont="0"/>
    </junction>
    <junction id="J12" type="dead_end" x="840.39" y="-102.17" incLanes="" intLanes="" shape="840.39,-102.17 840.37,-111.77"/>
    <junction id="J13" type="priority" x="999.93" y="-102.55" incLanes="L6_0 L6_1 L6_2 -E15_0 -E15_1 -E15_2 L3_0 L3_1 L3_2" intLanes=":J13_0_0 :J13_0_1 :J13_0_2 :J13_14_0 :J13_4_0 :J13_5_0 :J13_5_1 :J13_5_2 :J13_8_0 :J13_9_0 :J13_9_1 :J13_9_2 :J13_12_0 :J13_12_1" shape="990.34,-98.48 1009.54,-98.55 1009.99,-100.77 1010.55,-101.55 1011.34,-102.10 1012.35,-102.43 1013.59,-102.54 1013.60,-112.14 1011.38,-112.59 1010.60,-113.14 1010.05,-113.92 1009.72,-114.92 1009.62,-116.15 990.42,-116.28 989.95,-113.97 989.38,-113.16 988.58,-112.58 987.56,-112.24 986.31,-112.12 986.33,-102.52 988.55,-102.07 989.33,-101.51 989.89,-100.73 990.23,-99.72">
        <request index="0"  response="00000000000000" foes="11111100000000" cont="0"/>
        <request index="1"  response="00000000000000" foes="11111100000000" cont="0"/>
        <request index="2"  response="00000000000000" foes="11111100000000" cont="0"/>
        <request index="3"  response="00000011100000" foes="11111011100000" cont="1"/>
        <request index="4"  response="00000000000000" foes="00111000000000" cont="0"/>
        <request index="5"  response="00000000000000" foes="11111000001000" cont="0"/>
        <request index="6"  response="00000000000000" foes="11111000001000" cont="0"/>
        <request index="7"  response="00000000000000" foes="11111000001000" cont="0"/>
        <request index="8"  response="00000000000111" foes="00000000000111" cont="0"/>
        <request index="9"  response="00000011111111" foes="00000011111111" cont="0"/>
        <request index="10" response="00000011111111" foes="00000011111111" cont="0"/>
        <request index="11" response="00000011111111" foes="00000011111111" cont="0"/>
        <request index="12" response="00000011101111" foes="00000011101111" cont="0"/>
        <request index="13" response="00000011101111" foes="00000011101111" cont="0"/>
    </junction>
    <junction id="J14" type="dead_end" x="1149.85" y="-102.48" incLanes="L12_0 L12_1 L12_2" intLanes="" shape="1149.85,-112.08 1149.85,-102.48"/>