<?xml version="1.0" encoding="UTF-8"?>

<!-- generated on 2025-03-22 14:19:08 by Eclipse SUMO netedit Version 1.21.0
<neteditConfiguration xmlns:xsi="http://www.w3.org/2001/XMLSchema-instance" xsi:noNamespaceSchemaLocation="http://sumo.dlr.de/xsd/neteditConfiguration.xsd">

    <input>
        <sumocfg-file value="C:\Users\Nguyen Minh Quan\OneDrive\OneDrive - student.vgu.edu.vn\RMIT_Feb\DirectoryName\22302025\Nguyen-Van-Linh-SUMO\simpleT.sumocfg"/>
        <additional-files value=""/>
        <route-files value="C:\Users\Nguyen Minh Quan\OneDrive\OneDrive - student.vgu.edu.vn\RMIT_Feb\DirectoryName\22302025\Nguyen-Van-Linh-SUMO\simpleT.rou.xml"/>
        <sumo-net-file value="C:\Users\Nguyen Minh Quan\OneDrive\OneDrive - student.vgu.edu.vn\RMIT_Feb\DirectoryName\22302025\Nguyen-Van-Linh-SUMO\simpleT.net.xml"/>
    </input>

    <processing>
        <geometry.min-radius.fix.railways value="false"/>
        <geometry.max-grade.fix value="false"/>
        <offset.disable-normalization value="true"/>
        <lefthand value="0"/>
    </processing>

    <junctions>
        <no-turnarounds value="true"/>
        <junctions.corner-detail value="5"/>
        <junctions.limit-turn-speed value="5.50"/>
        <rectangular-lane-cut value="0"/>
    </junctions>

    <pedestrian>
        <walkingareas value="0"/>
    </pedestrian>

    <netedit>
        <ignore.routeelements value="false"/>
    </netedit>

</neteditConfiguration>
-->

<nodes version="1.20" xmlns:xsi="http://www.w3.org/2001/XMLSchema-instance" xsi:noNamespaceSchemaLocation="http://sumo.dlr.de/xsd/nodes_file.xsd">
</nodes>
