<?xml version="1.0" encoding="UTF-8"?>

<!-- generated on 2025-03-28 03:20:34 by Eclipse SUMO netedit Version 1.21.0
<neteditConfiguration xmlns:xsi="http://www.w3.org/2001/XMLSchema-instance" xsi:noNamespaceSchemaLocation="http://sumo.dlr.de/xsd/neteditConfiguration.xsd">

    <input>
        <sumocfg-file value="C:\Users\Nguyen Minh Quan\Quan\Quan\SUMO_sim\DirectoryName\22302025\Nguyen-Van-Linh-SUMO\template.sumocfg"/>
        <additional-files value=""/>
        <route-files value="C:\Users\Nguyen Minh Quan\Quan\Quan\SUMO_sim\DirectoryName\22302025\Nguyen-Van-Linh-SUMO\simpleQ.rou.xml"/>
        <sumo-net-file value="C:\Users\Nguyen Minh Quan\Quan\Quan\SUMO_sim\DirectoryName\22302025\Nguyen-Van-Linh-SUMO\simpleQ.net.xml"/>
    </input>

    <output>
        <output-file value="C:\Users\Nguyen Minh Quan\Quan\Quan\SUMO_sim\DirectoryName\22302025\Nguyen-Van-Linh-SUMO\simpleQ.net.xml"/>
    </output>

    <processing>
        <geometry.min-radius.fix.railways value="false"/>
        <geometry.max-grade.fix value="false"/>
        <offset.disable-normalization value="true"/>
        <lefthand value="0"/>
    </processing>

    <junctions>
        <no-turnarounds value="true"/>
        <junctions.corner-detail value="5"/>
        <junctions.limit-turn-speed value="5.50"/>
        <rectangular-lane-cut value="0"/>
    </junctions>

    <pedestrian>
        <walkingareas value="0"/>
    </pedestrian>

    <netedit>
        <ignore.routeelements value="false"/>
    </netedit>

</neteditConfiguration>
-->

<net version="1.20" junctionCornerDetail="5" limitTurnSpeed="5.50" xmlns:xsi="http://www.w3.org/2001/XMLSchema-instance" xsi:noNamespaceSchemaLocation="http://sumo.dlr.de/xsd/net_file.xsd">

    <location netOffset="0.00,0.00" convBoundary="1028.42,-670.30,1862.57,-125.62" origBoundary="-10000000000.00,-10000000000.00,10000000000.00,10000000000.00" projParameter="!"/>

    <edge id=":J23_0" function="internal">
        <lane id=":J23_0_0" index="0" disallow="truck trailer tram rail_urban rail rail_electric rail_fast ship container cable_car subway aircraft drone custom1 custom2" speed="8.10" length="14.56" shape="1531.53,-415.12 1529.08,-414.37 1527.33,-412.12 1526.28,-408.37 1525.94,-403.12"/>
        <lane id=":J23_0_1" index="1" disallow="truck trailer tram rail_urban rail rail_electric rail_fast ship container cable_car subway aircraft drone custom1 custom2" speed="8.67" length="16.85" shape="1531.53,-415.12 1527.68,-414.36 1524.93,-412.11 1523.28,-408.36 1522.74,-403.11"/>
        <lane id=":J23_0_2" index="2" disallow="truck trailer tram rail_urban rail rail_electric rail_fast ship container cable_car subway aircraft drone custom1 custom2" speed="9.26" length="19.35" shape="1531.53,-415.12 1526.28,-414.36 1522.53,-412.11 1520.28,-408.36 1519.54,-403.11"/>
    </edge>
    <edge id=":J23_3" function="internal">
        <lane id=":J23_3_0" index="0" speed="13.89" length="18.22" shape="1531.53,-415.12 1526.14,-414.12 1522.72,-411.93 1519.30,-409.72 1513.92,-408.67"/>
        <lane id=":J23_3_1" index="1" speed="13.89" length="18.22" shape="1531.53,-415.12 1526.25,-414.62 1522.71,-413.52 1519.16,-412.41 1513.89,-411.87"/>
        <lane id=":J23_3_2" index="2" speed="13.89" length="18.22" shape="1531.52,-418.32 1526.24,-417.82 1522.69,-416.72 1519.14,-415.61 1513.85,-415.07"/>
        <lane id=":J23_3_3" index="3" speed="13.89" length="18.22" shape="1531.52,-418.32 1513.82,-418.27"/>
    </edge>
    <edge id=":J23_7" function="internal">
        <lane id=":J23_7_0" index="0" disallow="truck trailer tram rail_urban rail rail_electric rail_fast container cable_car subway aircraft drone custom1 custom2" speed="8.10" length="14.58" shape="1525.91,-436.72 1526.26,-431.47 1527.32,-427.71 1529.07,-425.47 1531.52,-424.72"/>
    </edge>
    <edge id=":J23_8" function="internal">
        <lane id=":J23_8_0" index="0" disallow="truck trailer tram rail_urban rail rail_electric rail_fast ship container cable_car subway aircraft drone custom1 custom2" speed="13.89" length="33.66" shape="1525.91,-436.72 1525.94,-403.12"/>
        <lane id=":J23_8_1" index="1" disallow="truck trailer tram rail_urban rail rail_electric rail_fast ship container cable_car subway aircraft drone custom1 custom2" speed="13.89" length="33.66" shape="1522.71,-436.71 1522.74,-403.11"/>
        <lane id=":J23_8_2" index="2" disallow="truck trailer tram rail_urban rail rail_electric rail_fast ship container cable_car subway aircraft drone custom1 custom2" speed="13.89" length="33.66" shape="1522.71,-436.71 1522.21,-427.25 1521.12,-419.91 1520.03,-412.58 1519.54,-403.11"/>
    </edge>
    <edge id=":J23_11" function="internal">
        <lane id=":J23_11_0" index="0" disallow="truck trailer tram rail_urban rail rail_electric rail_fast container cable_car subway aircraft drone custom1 custom2" speed="11.39" length="29.65" shape="1519.51,-436.71 1519.17,-424.46 1518.12,-415.71 1516.37,-410.44 1513.92,-408.67"/>
        <lane id=":J23_11_1" index="1" disallow="truck trailer tram rail_urban rail rail_electric rail_fast container cable_car subway aircraft drone custom1 custom2" speed="10.81" length="26.59" shape="1519.51,-436.71 1519.16,-425.86 1518.11,-418.11 1516.35,-413.44 1513.89,-411.87"/>
        <lane id=":J23_11_2" index="2" disallow="truck trailer tram rail_urban rail rail_electric rail_fast container cable_car subway aircraft drone custom1 custom2" speed="10.20" length="23.56" shape="1519.51,-436.71 1519.16,-427.26 1518.10,-420.51 1516.33,-416.44 1513.85,-415.07"/>
        <lane id=":J23_11_3" index="3" disallow="truck trailer tram rail_urban rail rail_electric rail_fast container cable_car subway aircraft drone custom1 custom2" speed="9.56" length="20.56" shape="1519.51,-436.71 1519.16,-428.66 1518.09,-422.91 1516.31,-419.44 1513.82,-418.27"/>
    </edge>
    <edge id=":J23_15" function="internal">
        <lane id=":J23_15_0" index="0" speed="13.89" length="19.28" shape="1513.70,-431.07 1519.14,-430.12 1522.61,-427.93 1526.07,-425.72 1531.52,-424.72"/>
    </edge>
    <edge id=":J23_16" function="internal">
        <lane id=":J23_16_0" index="0" disallow="truck trailer tram rail_urban rail rail_electric rail_fast ship container cable_car subway aircraft drone custom1 custom2" speed="11.48" length="30.52" shape="1513.73,-427.87 1519.06,-426.37 1522.87,-421.74 1525.16,-413.99 1525.94,-403.12"/>
    </edge>
    <edge id=":J23_17" function="internal">
        <lane id=":J23_17_0" index="0" speed="13.89" length="18.14" shape="1513.76,-424.67 1519.07,-424.21 1522.64,-423.12 1526.21,-422.02 1531.52,-421.52"/>
    </edge>
    <edge id=":J23_18" function="internal">
        <lane id=":J23_18_0" index="0" disallow="truck trailer tram rail_urban rail rail_electric rail_fast ship container cable_car subway aircraft drone custom1 custom2" speed="10.52" length="25.48" shape="1513.76,-424.67 1517.68,-423.36 1520.48,-419.32 1522.17,-412.58 1522.74,-403.11"/>
        <lane id=":J23_18_1" index="1" disallow="truck trailer tram rail_urban rail rail_electric rail_fast ship container cable_car subway aircraft drone custom1 custom2" speed="9.49" length="20.53" shape="1513.79,-421.47 1516.30,-420.34 1518.09,-416.91 1519.17,-411.16 1519.54,-403.11"/>
    </edge>
    <edge id=":J30_0" function="internal">
        <lane id=":J30_0_0" index="0" disallow="bus truck" speed="13.89" length="14.68" shape="1513.36,-408.66 1498.66,-408.57"/>
        <lane id=":J30_0_1" index="1" disallow="bus truck" speed="13.89" length="14.68" shape="1513.33,-411.86 1498.67,-411.77"/>
    </edge>
    <edge id=":J30_2" function="internal">
        <lane id=":J30_2_0" index="0" disallow="motorcycle moped bicycle aircraft scooter drone custom1 custom2" speed="8.17" length="14.75" shape="1513.30,-415.06 1510.78,-414.29 1508.98,-412.01 1507.91,-408.24 1507.55,-402.96"/>
        <lane id=":J30_2_1" index="1" disallow="motorcycle moped bicycle aircraft scooter drone custom1 custom2" speed="8.74" length="17.03" shape="1513.30,-415.06 1509.38,-414.27 1506.58,-411.99 1504.91,-408.22 1504.35,-402.96"/>
    </edge>
    <edge id=":J30_4" function="internal">
        <lane id=":J30_4_0" index="0" disallow="moped bicycle scooter" speed="13.89" length="14.60" shape="1513.30,-415.06 1498.68,-414.97"/>
        <lane id=":J30_4_1" index="1" disallow="moped bicycle scooter" speed="13.89" length="14.60" shape="1513.27,-418.26 1498.69,-418.17"/>
    </edge>
    <edge id=":J30_6" function="internal">
        <lane id=":J30_6_0" index="0" disallow="pedestrian motorcycle moped bicycle container aircraft wheelchair scooter drone custom1 custom2" speed="6.49" length="9.03" shape="1507.52,-436.62 1507.88,-434.17 1508.93,-432.43 1510.69,-431.39 1513.14,-431.06"/>
        <lane id=":J30_6_1" index="1" disallow="pedestrian motorcycle moped bicycle container aircraft wheelchair scooter drone custom1 custom2" speed="7.31" length="11.74" shape="1507.52,-436.62 1507.88,-432.77 1508.94,-430.03 1510.71,-428.39 1513.17,-427.86"/>
        <lane id=":J30_6_2" index="2" disallow="pedestrian motorcycle moped bicycle container aircraft wheelchair scooter drone custom1 custom2" speed="8.08" length="14.60" shape="1507.52,-436.62 1507.88,-431.37 1508.95,-427.63 1510.72,-425.39 1513.21,-424.66"/>
    </edge>
    <edge id=":J30_9" function="internal">
        <lane id=":J30_9_0" index="0" disallow="pedestrian motorcycle moped bicycle container aircraft wheelchair scooter drone custom1 custom2" speed="13.89" length="33.66" shape="1507.52,-436.62 1507.55,-402.96"/>
        <lane id=":J30_9_1" index="1" disallow="pedestrian motorcycle moped bicycle container aircraft wheelchair scooter drone custom1 custom2" speed="13.89" length="33.66" shape="1504.32,-436.62 1504.35,-402.96"/>
    </edge>
    <edge id=":J30_11" function="internal">
        <lane id=":J30_11_0" index="0" disallow="pedestrian motorcycle moped bicycle container aircraft wheelchair scooter drone custom1 custom2" speed="10.16" length="23.58" shape="1504.32,-436.62 1503.98,-427.14 1502.92,-420.38 1501.16,-416.32 1498.68,-414.97"/>
        <lane id=":J30_11_1" index="1" disallow="pedestrian motorcycle moped bicycle container aircraft wheelchair scooter drone custom1 custom2" speed="9.51" length="20.55" shape="1504.32,-436.62 1503.98,-428.54 1502.92,-422.78 1501.16,-419.32 1498.69,-418.17"/>
    </edge>
    <edge id=":J30_13" function="internal">
        <lane id=":J30_13_0" index="0" disallow="bus truck" speed="13.89" length="14.44" shape="1498.72,-430.97 1513.14,-431.06"/>
        <lane id=":J30_13_1" index="1" disallow="bus truck" speed="13.89" length="14.44" shape="1498.71,-427.77 1513.17,-427.86"/>
    </edge>
    <edge id=":J30_15" function="internal">
        <lane id=":J30_15_0" index="0" disallow="bus truck motorcycle moped bicycle aircraft scooter drone custom1 custom2" speed="11.13" length="28.36" shape="1498.71,-427.77 1502.57,-426.21 1505.33,-421.56 1506.99,-413.81 1507.55,-402.96"/>
    </edge>
    <edge id=":J30_16" function="internal">
        <lane id=":J30_16_0" index="0" disallow="moped bicycle scooter" speed="13.89" length="14.50" shape="1498.71,-424.57 1513.21,-424.66"/>
    </edge>
    <edge id=":J30_17" function="internal">
        <lane id=":J30_17_0" index="0" disallow="motorcycle moped bicycle aircraft scooter drone custom1 custom2" speed="9.53" length="20.51" shape="1498.70,-421.37 1501.17,-420.21 1502.93,-416.76 1503.99,-411.01 1504.35,-402.96"/>
    </edge>
    <edge id=":J33_0" function="internal">
        <lane id=":J33_0_0" index="0" disallow="pedestrian motorcycle moped bicycle aircraft wheelchair scooter drone custom1 custom2" speed="6.51" length="9.03" shape="1390.62,-403.24 1390.26,-405.69 1389.21,-407.44 1387.46,-408.49 1385.01,-408.84"/>
        <lane id=":J33_0_1" index="1" disallow="pedestrian motorcycle moped bicycle aircraft wheelchair scooter drone custom1 custom2" speed="7.32" length="11.73" shape="1390.62,-403.24 1390.26,-407.09 1389.21,-409.84 1387.46,-411.49 1385.01,-412.04"/>
        <lane id=":J33_0_2" index="2" disallow="pedestrian motorcycle moped bicycle aircraft wheelchair scooter drone custom1 custom2" speed="8.10" length="14.57" shape="1390.62,-403.24 1390.26,-408.49 1389.21,-412.24 1387.46,-414.49 1385.00,-415.24"/>
        <lane id=":J33_0_3" index="3" disallow="pedestrian motorcycle moped bicycle aircraft wheelchair scooter drone custom1 custom2" speed="8.82" length="17.50" shape="1390.62,-403.24 1390.26,-409.89 1389.21,-414.64 1387.45,-417.49 1385.00,-418.44"/>
    </edge>
    <edge id=":J33_4" function="internal">
        <lane id=":J33_4_0" index="0" disallow="pedestrian motorcycle moped bicycle aircraft wheelchair scooter drone custom1 custom2" speed="13.89" length="33.61" shape="1390.62,-403.24 1390.63,-436.86"/>
        <lane id=":J33_4_1" index="1" disallow="pedestrian motorcycle moped bicycle aircraft wheelchair scooter drone custom1 custom2" speed="13.89" length="33.61" shape="1393.82,-403.24 1393.83,-436.85"/>
    </edge>
    <edge id=":J33_6" function="internal">
        <lane id=":J33_6_0" index="0" disallow="pedestrian motorcycle moped bicycle aircraft wheelchair scooter drone custom1 custom2" speed="10.15" length="23.52" shape="1393.82,-403.24 1394.17,-412.70 1395.22,-419.45 1396.99,-423.50 1399.46,-424.84"/>
        <lane id=":J33_6_1" index="1" disallow="pedestrian motorcycle moped bicycle aircraft wheelchair scooter drone custom1 custom2" speed="9.50" length="20.50" shape="1393.82,-403.24 1394.17,-411.30 1395.22,-417.05 1396.98,-420.50 1399.45,-421.64"/>
    </edge>
    <edge id=":J33_8" function="internal">
        <lane id=":J33_8_0" index="0" disallow="bus truck" speed="13.89" length="14.41" shape="1399.42,-408.84 1385.01,-408.84"/>
        <lane id=":J33_8_1" index="1" disallow="bus truck" speed="13.89" length="14.41" shape="1399.43,-412.04 1385.01,-412.04"/>
    </edge>
    <edge id=":J33_10" function="internal">
        <lane id=":J33_10_0" index="0" disallow="pedestrian bus truck motorcycle moped bicycle aircraft wheelchair scooter drone custom1 custom2" speed="11.12" length="28.36" shape="1399.43,-412.04 1395.57,-413.60 1392.81,-418.26 1391.17,-426.01 1390.63,-436.86"/>
    </edge>
    <edge id=":J33_11" function="internal">
        <lane id=":J33_11_0" index="0" disallow="moped bicycle scooter" speed="13.89" length="14.44" shape="1399.44,-415.24 1385.00,-415.24"/>
        <lane id=":J33_11_1" index="1" disallow="moped bicycle scooter" speed="13.89" length="14.44" shape="1399.44,-418.44 1385.00,-418.44"/>
    </edge>
    <edge id=":J33_13" function="internal">
        <lane id=":J33_13_0" index="0" disallow="pedestrian motorcycle moped bicycle aircraft wheelchair scooter drone custom1 custom2" speed="9.52" length="20.50" shape="1399.44,-418.44 1396.98,-419.60 1395.22,-423.05 1394.17,-428.80 1393.83,-436.85"/>
    </edge>
    <edge id=":J33_14" function="internal">
        <lane id=":J33_14_0" index="0" disallow="pedestrian motorcycle moped bicycle aircraft wheelchair scooter drone custom1 custom2" speed="6.53" length="9.09" shape="1384.98,-431.24 1387.45,-431.59 1389.22,-432.64 1390.28,-434.40 1390.63,-436.86"/>
    </edge>
    <edge id=":J33_15" function="internal">
        <lane id=":J33_15_0" index="0" disallow="bus truck" speed="13.89" length="14.50" shape="1384.98,-431.24 1399.48,-431.24"/>
    </edge>
    <edge id=":J33_16" function="internal">
        <lane id=":J33_16_0" index="0" disallow="pedestrian motorcycle moped bicycle aircraft wheelchair scooter drone custom1 custom2" speed="8.02" length="14.24" shape="1384.98,-428.04 1388.85,-428.59 1391.62,-430.25 1393.28,-433.00 1393.83,-436.85"/>
    </edge>
    <edge id=":J33_17" function="internal">
        <lane id=":J33_17_0" index="0" disallow="bus truck" speed="13.89" length="14.47" shape="1384.98,-428.04 1399.47,-428.04"/>
        <lane id=":J33_17_1" index="1" disallow="moped bicycle scooter" speed="13.89" length="14.47" shape="1384.99,-424.84 1399.46,-424.84"/>
        <lane id=":J33_17_2" index="2" disallow="moped bicycle scooter" speed="13.89" length="14.47" shape="1384.99,-421.64 1399.45,-421.64"/>
    </edge>
    <edge id=":J35_0" function="internal">
        <lane id=":J35_0_0" index="0" disallow="pedestrian motorcycle moped bicycle aircraft wheelchair scooter drone custom1 custom2" speed="13.89" length="0.30" shape="1480.86,-276.15 1480.86,-275.85"/>
        <lane id=":J35_0_1" index="1" disallow="pedestrian motorcycle moped bicycle aircraft wheelchair scooter drone custom1 custom2" speed="13.89" length="0.30" shape="1477.66,-276.15 1477.66,-275.85"/>
        <lane id=":J35_0_2" index="2" disallow="pedestrian motorcycle moped bicycle aircraft wheelchair scooter drone custom1 custom2" speed="13.89" length="0.30" shape="1474.46,-276.15 1474.46,-275.85"/>
    </edge>
    <edge id=":J38_0" function="internal">
        <lane id=":J38_0_0" index="0" disallow="bus" speed="13.89" length="18.98" shape="1384.85,-408.84 1379.20,-409.25 1375.21,-409.85 1371.39,-409.69 1366.29,-407.78"/>
        <lane id=":J38_0_1" index="1" disallow="bus" speed="13.89" length="20.68" shape="1384.85,-408.84 1378.76,-409.74 1374.45,-411.40 1370.35,-412.24 1364.86,-410.64"/>
    </edge>
    <edge id=":J38_2" function="internal">
        <lane id=":J38_2_0" index="0" speed="13.89" length="21.50" shape="1384.85,-412.04 1378.44,-412.57 1374.02,-413.76 1369.73,-414.93 1363.72,-415.42"/>
        <lane id=":J38_2_1" index="1" speed="13.89" length="21.50" shape="1384.85,-415.24 1378.43,-415.77 1374.00,-416.96 1369.71,-418.13 1363.69,-418.62"/>
    </edge>
    <edge id=":J38_4" function="internal">
        <lane id=":J38_4_0" index="0" speed="10.41" length="24.74" shape="1384.84,-418.44 1379.59,-419.58 1375.83,-423.02 1373.57,-428.77 1372.82,-436.82"/>
        <lane id=":J38_4_1" index="1" speed="9.94" length="22.49" shape="1384.84,-418.44 1380.99,-419.58 1378.23,-423.03 1376.57,-428.78 1376.02,-436.83"/>
        <lane id=":J38_4_2" index="2" speed="9.51" length="20.48" shape="1384.84,-418.44 1382.39,-419.58 1380.63,-423.03 1379.57,-428.78 1379.22,-436.83"/>
    </edge>
    <edge id=":J38_7" function="internal">
        <lane id=":J38_7_0" index="0" speed="8.10" length="14.54" shape="1363.61,-427.99 1367.64,-428.55 1370.52,-430.21 1372.24,-432.97 1372.82,-436.82"/>
    </edge>
    <edge id=":J38_8" function="internal">
        <lane id=":J38_8_0" index="0" speed="13.89" length="21.39" shape="1363.64,-424.79 1369.96,-425.31 1374.23,-426.42 1378.50,-427.53 1384.83,-428.04"/>
        <lane id=":J38_8_1" index="1" speed="13.89" length="21.39" shape="1363.67,-421.59 1369.98,-422.11 1374.25,-423.22 1378.51,-424.33 1384.83,-424.84"/>
        <lane id=":J38_8_2" index="2" speed="13.89" length="21.39" shape="1363.67,-421.59 1384.84,-421.64"/>
    </edge>
    <edge id=":J38_11" function="internal">
        <lane id=":J38_11_0" index="0" disallow="bus" speed="6.09" length="10.54" shape="1372.83,-403.23 1372.42,-406.44 1371.19,-408.27 1369.15,-408.71 1366.29,-407.78"/>
    </edge>
    <edge id=":J38_12" function="internal">
        <lane id=":J38_12_0" index="0" speed="8.75" length="17.28" shape="1372.83,-403.23 1372.26,-408.59 1370.55,-412.41 1367.70,-414.69 1363.72,-415.42"/>
    </edge>
    <edge id=":J38_13" function="internal">
        <lane id=":J38_13_0" index="0" speed="13.89" length="33.59" shape="1372.83,-403.23 1372.82,-436.82"/>
        <lane id=":J38_13_1" index="1" speed="13.89" length="33.59" shape="1376.03,-403.23 1376.02,-436.83"/>
    </edge>
    <edge id=":J38_15" function="internal">
        <lane id=":J38_15_0" index="0" disallow="bus" speed="8.41" length="4.75" shape="1379.23,-403.23 1378.52,-407.93"/>
    </edge>
    <edge id=":J38_16" function="internal">
        <lane id=":J38_16_0" index="0" speed="13.89" length="33.60" shape="1379.23,-403.23 1379.22,-436.83"/>
    </edge>
    <edge id=":J38_17" function="internal">
        <lane id=":J38_17_0" index="0" speed="11.36" length="29.61" shape="1379.23,-403.23 1379.58,-415.48 1380.63,-424.23 1382.38,-429.48 1384.82,-431.24"/>
        <lane id=":J38_17_1" index="1" speed="10.77" length="26.55" shape="1379.23,-403.23 1379.58,-414.08 1380.63,-421.83 1382.38,-426.48 1384.83,-428.04"/>
        <lane id=":J38_17_2" index="2" speed="10.16" length="23.50" shape="1379.23,-403.23 1379.58,-412.68 1380.63,-419.43 1382.38,-423.48 1384.83,-424.84"/>
        <lane id=":J38_17_3" index="3" speed="9.52" length="20.49" shape="1379.23,-403.23 1379.58,-411.28 1380.63,-417.03 1382.38,-420.48 1384.84,-421.64"/>
    </edge>
    <edge id=":J38_21" function="internal">
        <lane id=":J38_21_0" index="0" disallow="bus" speed="8.41" length="16.61" shape="1378.52,-407.93 1378.33,-409.15 1375.64,-412.36 1371.15,-412.86 1364.86,-410.64"/>
    </edge>
    <edge id=":J44_0" function="internal">
        <lane id=":J44_0_0" index="0" speed="13.89" length="20.77" shape="1319.00,-424.71 1324.73,-425.62 1328.28,-427.94 1331.67,-431.02 1336.91,-434.23"/>
        <lane id=":J44_0_1" index="1" speed="13.89" length="21.12" shape="1319.00,-424.71 1325.01,-425.20 1329.16,-426.58 1333.15,-428.73 1338.67,-431.51"/>
    </edge>
    <edge id=":J44_2" function="internal">
        <lane id=":J44_2_0" index="0" speed="13.89" length="20.91" shape="1319.00,-424.71 1324.98,-425.21 1329.16,-426.32 1333.44,-427.43 1339.69,-427.95"/>
        <lane id=":J44_2_1" index="1" speed="13.89" length="20.91" shape="1319.00,-421.51 1324.98,-422.01 1329.17,-423.12 1333.45,-424.23 1339.69,-424.75"/>
        <lane id=":J44_2_2" index="2" speed="13.89" length="20.91" shape="1319.00,-421.51 1339.70,-421.55"/>
    </edge>
    <edge id=":J45_0" function="internal">
        <lane id=":J45_0_0" index="0" speed="13.89" length="12.48" shape="1372.81,-440.82 1372.81,-453.30"/>
        <lane id=":J45_0_1" index="1" speed="13.89" length="12.48" shape="1376.01,-440.82 1376.01,-453.30"/>
        <lane id=":J45_0_2" index="2" speed="13.89" length="12.48" shape="1379.21,-440.83 1379.21,-453.30"/>
    </edge>
    <edge id=":J45_3" function="internal">
        <lane id=":J45_3_0" index="0" speed="7.40" length="8.96" shape="1366.95,-447.30 1369.52,-448.42 1371.35,-449.80 1372.45,-451.43 1372.81,-453.30"/>
        <lane id=":J45_3_1" index="1" speed="8.78" length="12.95" shape="1367.99,-444.27 1371.50,-445.86 1374.01,-447.90 1375.51,-450.38 1376.01,-453.30"/>
    </edge>
    <edge id=":J47_0" function="internal">
        <lane id=":J47_0_0" index="0" disallow="pedestrian motorcycle moped bicycle aircraft wheelchair scooter drone custom1 custom2" speed="13.89" length="0.30" shape="1414.83,-538.66 1414.83,-538.96"/>
        <lane id=":J47_0_1" index="1" disallow="pedestrian motorcycle moped bicycle aircraft wheelchair scooter drone custom1 custom2" speed="13.89" length="0.30" shape="1418.03,-538.66 1418.03,-538.96"/>
        <lane id=":J47_0_2" index="2" disallow="pedestrian motorcycle moped bicycle aircraft wheelchair scooter drone custom1 custom2" speed="13.89" length="0.30" shape="1421.23,-538.66 1421.23,-538.96"/>
    </edge>
    <edge id=":J48_0" function="internal">
        <lane id=":J48_0_0" index="0" disallow="bus" speed="13.89" length="15.90" shape="1312.62,-408.48 1308.88,-411.01 1306.36,-413.05 1303.65,-414.41 1299.38,-414.90"/>
        <lane id=":J48_0_1" index="1" disallow="bus" speed="13.89" length="15.90" shape="1314.20,-411.26 1310.04,-414.03 1307.19,-416.19 1304.14,-417.60 1299.38,-418.10"/>
    </edge>
    <edge id=":J48_2" function="internal">
        <lane id=":J48_2_0" index="0" speed="13.89" length="15.77" shape="1315.17,-415.01 1299.38,-414.90"/>
        <lane id=":J48_2_1" index="1" speed="13.89" length="15.77" shape="1315.14,-418.21 1299.38,-418.10"/>
    </edge>

    <edge id="-E7" from="J30" to="J23" priority="-1">
        <lane id="-E7_0" index="0" speed="13.89" length="0.55" shape="1513.14,-431.06 1513.70,-431.07"/>
        <lane id="-E7_1" index="1" speed="13.89" length="0.55" shape="1513.17,-427.86 1513.73,-427.87"/>
        <lane id="-E7_2" index="2" speed="13.89" length="0.55" shape="1513.21,-424.66 1513.76,-424.67"/>
        <lane id="-E7_3" index="3" speed="13.89" length="0.55" shape="1513.24,-421.46 1513.79,-421.47"/>
    </edge>
    <edge id="21" from="J38" to="J45" priority="-1">
        <lane id="21_0" index="0" speed="13.89" length="4.00" shape="1372.82,-436.82 1372.81,-440.82"/>
        <lane id="21_1" index="1" speed="13.89" length="4.00" shape="1376.02,-436.83 1376.01,-440.82"/>
        <lane id="21_2" index="2" speed="13.89" length="4.00" shape="1379.22,-436.83 1379.21,-440.83"/>
    </edge>
    <edge id="E0" from="J38" to="J48" priority="-1">
        <lane id="E0_0" index="0" speed="13.89" length="48.55" shape="1363.72,-415.42 1315.17,-415.01"/>
        <lane id="E0_1" index="1" speed="13.89" length="48.55" shape="1363.69,-418.62 1315.14,-418.21"/>
    </edge>
    <edge id="E21" from="J44" to="J45" priority="-1" shape="1322.39,-419.91 1335.18,-428.20 1350.32,-434.97 1365.30,-441.66 1380.81,-446.96">
        <lane id="E21_0" index="0" speed="13.89" length="32.38" shape="1336.91,-434.23 1348.36,-439.35 1363.54,-446.13 1366.95,-447.30"/>
        <lane id="E21_1" index="1" speed="13.89" length="32.38" shape="1338.67,-431.51 1349.67,-436.43 1364.71,-443.15 1367.99,-444.27"/>
    </edge>
    <edge id="E7" from="J23" to="J30" priority="-1">
        <lane id="E7_0" index="0" speed="13.89" length="0.55" shape="1513.92,-408.67 1513.36,-408.66"/>
        <lane id="E7_1" index="1" speed="13.89" length="0.55" shape="1513.89,-411.87 1513.33,-411.86"/>
        <lane id="E7_2" index="2" speed="13.89" length="0.55" shape="1513.85,-415.07 1513.30,-415.06"/>
        <lane id="E7_3" index="3" speed="13.89" length="0.55" shape="1513.82,-418.27 1513.27,-418.26"/>
    </edge>
    <edge id="L1" from="J23" to="J4" priority="-1">
        <lane id="L1_0" index="0" speed="13.89" length="331.05" shape="1531.52,-424.72 1862.57,-424.86"/>
        <lane id="L1_1" index="1" speed="13.89" length="331.05" shape="1531.52,-421.52 1862.57,-421.66"/>
    </edge>
    <edge id="L10" from="J33" to="J36" priority="-1">
        <lane id="L10_0" index="0" disallow="pedestrian motorcycle moped bicycle aircraft wheelchair scooter drone custom1 custom2" speed="13.89" length="224.56" shape="1390.63,-436.86 1390.95,-661.42"/>
        <lane id="L10_1" index="1" disallow="pedestrian motorcycle moped bicycle aircraft wheelchair scooter drone custom1 custom2" speed="13.89" length="224.56" shape="1393.83,-436.85 1394.15,-661.41"/>
    </edge>
    <edge id="L11" from="J30" to="J33" priority="3" length="85.00">
        <lane id="L11_0" index="0" disallow="bus truck" speed="13.89" length="85.00" shape="1498.66,-408.57 1399.42,-408.84"/>
        <lane id="L11_1" index="1" disallow="bus truck" speed="13.89" length="85.00" shape="1498.67,-411.77 1399.43,-412.04"/>
        <lane id="L11_2" index="2" disallow="moped bicycle scooter" speed="13.89" length="85.00" shape="1498.68,-414.97 1399.44,-415.24"/>
        <lane id="L11_3" index="3" disallow="moped bicycle scooter" speed="13.89" length="85.00" shape="1498.69,-418.17 1399.44,-418.44"/>
    </edge>
    <edge id="L12" from="J33" to="J30" priority="3" length="85.00">
        <lane id="L12_0" index="0" disallow="bus truck" speed="13.89" length="85.00" shape="1399.48,-431.24 1498.72,-430.97"/>
        <lane id="L12_1" index="1" disallow="bus truck" speed="13.89" length="85.00" shape="1399.47,-428.04 1498.71,-427.77"/>
        <lane id="L12_2" index="2" disallow="moped bicycle scooter" speed="13.89" length="85.00" shape="1399.46,-424.84 1498.71,-424.57"/>
        <lane id="L12_3" index="3" disallow="moped bicycle scooter" speed="13.89" length="85.00" shape="1399.45,-421.64 1498.70,-421.37"/>
    </edge>
    <edge id="L13" from="J46" to="J47" priority="-1">
        <lane id="L13_0" index="0" disallow="pedestrian motorcycle moped bicycle aircraft wheelchair scooter drone custom1 custom2" speed="13.89" length="411.27" shape="1414.79,-127.39 1414.83,-538.66"/>
        <lane id="L13_1" index="1" disallow="pedestrian motorcycle moped bicycle aircraft wheelchair scooter drone custom1 custom2" speed="13.89" length="411.27" shape="1417.99,-127.39 1418.03,-538.66"/>
        <lane id="L13_2" index="2" disallow="pedestrian motorcycle moped bicycle aircraft wheelchair scooter drone custom1 custom2" speed="13.89" length="411.27" shape="1421.19,-127.39 1421.23,-538.66"/>
    </edge>
    <edge id="L14" from="J34" to="J35" priority="-1">
        <lane id="L14_0" index="0" disallow="pedestrian motorcycle moped bicycle aircraft wheelchair scooter drone custom1 custom2" speed="13.89" length="391.09" shape="1480.94,-667.24 1480.86,-276.15"/>
        <lane id="L14_1" index="1" disallow="pedestrian motorcycle moped bicycle aircraft wheelchair scooter drone custom1 custom2" speed="13.89" length="391.09" shape="1477.74,-667.24 1477.66,-276.15"/>
        <lane id="L14_2" index="2" disallow="pedestrian motorcycle moped bicycle aircraft wheelchair scooter drone custom1 custom2" speed="13.89" length="391.09" shape="1474.54,-667.24 1474.46,-276.15"/>
    </edge>
    <edge id="L15" from="J44" to="J38" priority="-1" shape="1322.39,-419.91 1381.10,-420.03">
        <lane id="L15_0" index="0" speed="13.89" length="23.95" shape="1339.69,-427.95 1363.61,-427.99"/>
        <lane id="L15_1" index="1" speed="13.89" length="23.95" shape="1339.69,-424.75 1363.64,-424.79"/>
        <lane id="L15_2" index="2" speed="13.89" length="23.95" shape="1339.70,-421.55 1363.67,-421.59"/>
    </edge>
    <edge id="L2" from="J4" to="J23" priority="-1">
        <lane id="L2_0" index="0" speed="13.89" length="331.05" shape="1862.57,-415.26 1531.53,-415.12"/>
        <lane id="L2_1" index="1" speed="13.89" length="331.05" shape="1862.57,-418.46 1531.52,-418.32"/>
    </edge>
    <edge id="L20" from="J33" to="J38" priority="-1" shape="1395.41,-420.05 1381.10,-420.03">
        <lane id="L20_0" index="0" speed="13.89" length="0.16" shape="1385.01,-408.84 1384.85,-408.84"/>